       206
            32.68775            77.17539
   AR                   76.67041              73.63705              68.91215
   AR                  105.86117              22.56586              15.10061
   AR                   70.24655              25.35352               9.32825
   AR                   65.90764              25.71056              14.09787
   AR                  106.72871              31.89092               2.40361
   AR                   62.00355              43.75121              63.26467
   AR                    0.45118              24.03163              25.09771
   AR                  115.07208              25.73825              66.18053
   AR                  110.89481              76.13205              21.05890
   AR                   91.89581              64.37836              71.84126
   AR                   56.94253              64.06098              72.47050
   AR                   84.65600              26.83017               5.89557
   AR                  111.59918              68.01371              39.21452
   AR                  118.18495              24.32271              56.28722
   AR                  118.44194              58.76998              48.71843
   AR                   54.79764              40.08161              59.90307
   AR                   64.42615              72.79655              55.30140
   AR                    3.31429               3.01184               1.18428
   AR                   96.23406               2.15365              29.43642
   AR                  120.13733              26.41206              11.72501
   AR                  101.14003              74.59502              21.59523
   AR                   51.93968              45.64019              57.60871
   AR                  114.62666              17.96008               3.72641
   AR                   90.92867              59.45158              36.38707
   AR                   97.75664              47.31551              60.79739
   AR                  114.78191              43.32004               8.38734
   AR                   70.78363               9.17409               2.96044
   AR                   72.44883              76.94137              29.15994
   AR                  122.27478              10.78985              71.17870
   AR                  116.24673              37.53706              16.35355
   AR                  106.12532              43.81756              36.15383
   AR                  123.58759               0.80358              23.89838
   AR                   18.99401              24.10891              15.46331
   AR                   89.27643              46.71810              20.30592
   AR                   55.84357              71.27441              26.05221
   AR                   81.30672              50.62383               2.03009
   AR                   66.36424              30.69717              25.29460
   AR                   89.71384              71.47447              47.39667
   AR                   82.72856              74.61342               7.65060
   AR                   72.03416              57.97466              50.38233
   AR                  102.22357              52.16572              73.57825
   AR                  122.76253              62.46359               3.27723
   AR                  120.70095               5.65132              73.14833
   AR                   52.13009              59.89720              34.48266
   AR                   62.42937              63.50157              37.86204
   AR                  125.30911               8.55004              53.83307
   AR                   89.25035               9.56192              76.15799
   AR                   60.30713              65.49146               4.48623
   AR                   72.83584              57.99590              75.68594
   AR                   52.40714              58.18716              26.13280
   AR                  123.35675              75.71553              11.15715
   AR                   98.76772              72.70381              25.91897
   AR                    3.26323               9.06096              22.59280
   AR                   91.05850              59.23215               4.89073
   AR                   76.33478               6.49848              73.69482
   AR                   72.16395              40.37905               7.12088
   AR                  114.33606              10.02788              68.36925
   AR                   93.09322              10.55714              36.83487
   AR                   53.32323               3.97465              56.89481
   AR                   94.13071              20.09780              11.43331
   AR                  102.65869               8.10262               4.76865
   AR                   51.33541              70.31733              55.42208
   AR                   70.80639              63.67502              10.54788
   AR                  108.34901              49.67218              46.28786
   AR                   80.48630              66.70280              12.72915
   AR                   99.06266               5.66940              40.40430
   AR                   83.88023              75.27270              65.06724
   AR                   58.99300              13.08562              31.33319
   AR                  109.73222              42.32785              48.81745
   AR                   95.54478               1.17384              56.72347
   AR                   94.17568              33.88913               8.94458
   AR                   62.16038              30.82971              54.18638
   AR                   89.95193              55.58529              54.61136
   AR                   85.99528               0.19498              20.80193
   AR                   29.28242               3.40700              16.60349
   AR                   99.56782              58.80535              64.49554
   AR                   92.75078              18.48968              17.98045
   AR                   68.71854               8.67200              26.59898
   AR                   72.13678              35.23743              68.03915
   AR                   51.31051               1.72692              40.13173
   AR                   72.51601              34.00232              19.08544
   AR                   70.18275              18.47366              69.11440
   AR                   68.76944              68.84976               9.73143
   AR                   61.67699              18.15862              57.74564
   AR                   78.19079              39.51957              70.03259
   AR                   98.36578              19.62732              44.81704
   AR                   87.09226              18.54584              19.49132
   AR                   56.62895              48.21511              54.81086
   AR                   86.98121              19.14501              28.07184
   AR                   60.22376              43.40756              17.48525
   AR                  107.95033              59.51987              24.81816
   AR                   60.13272              32.18724              71.19524
   AR                  100.95947              63.57641              64.24728
   AR                   18.72992              10.07696               3.68628
   AR                   87.03953              27.13804              18.78500
   AR                  123.46377              43.71339              47.36570
   AR                   82.79811              58.26887              55.95511
   AR                   65.99608              30.44960              46.84309
   AR                  109.61878              52.61961              72.40625
   AR                   82.71766              63.59670              68.61399
   AR                  109.62843              75.58695              53.41859
   AR                  100.69750              35.43864              52.79408
   AR                   59.73583              67.49105              12.42832
   AR                   89.40286              53.81663              34.44530
   AR                   90.30737              26.44207              49.18162
   AR                   51.82438              67.83008              64.66520
   AR                   75.20836              39.39519              76.20112
   AR                   92.27332              39.91927               3.76450
   AR                   85.82855              23.51973              20.33499
   AR                   59.05334              56.10008              35.90967
   AR                   12.80340              12.67336              31.84308
   AR                  123.07792              37.18552              50.50297
   AR                  108.48830               9.42212              45.72886
   AR                   69.63888              56.20239              62.87371
   AR                  123.85293              36.76175              71.20481
   AR                   68.09734               8.42302               4.71611
   AR                  115.85022              68.63334              63.95389
   AR                   81.79954              71.71209              59.60668
   AR                  112.47806              25.85029              10.20924
   AR                  105.60571              33.22258              42.62678
   AR                   99.54001               2.95113               4.77444
   AR                   98.49452              44.72856              66.83828
   AR                   49.44283              56.36182              53.39345
   AR                  107.87384              26.53145              53.21190
   AR                   56.56965              43.17779              50.73093
   AR                   93.44437              33.97287              33.46662
   AR                   24.21377              15.35128              22.15617
   AR                   75.87313              52.02415              39.69453
   AR                   55.10546              42.14815              55.03094
   AR                   13.95879              32.14115              30.83668
   AR                   80.69005              20.19396              13.26920
   AR                   63.35222              66.77347              30.53935
   AR                   92.19101              11.67931              19.12521
   AR                   50.24745              20.22481              24.18884
   AR                  113.11707              67.70075              71.97707
   AR                   87.54360              47.50146               8.33036
   AR                   70.12363              41.69452              11.76749
   AR                  113.86760              33.78170              74.17062
   AR                   92.64840              44.24861              18.97412
   AR                   86.24857              21.00952               4.74025
   AR                   86.27357              67.74608              23.35762
   AR                   88.72472              69.09016              53.67833
   AR                   75.54435              40.52824               9.30654
   AR                  114.64953              49.13736              48.37980
   AR                  115.66518              69.24328              21.37492
   AR                   64.30324              32.68897              44.84262
   AR                   92.64382              73.75467              64.74401
   AR                   14.24527               4.20015              10.25796
   AR                   66.33949              49.68419              14.19178
   AR                   89.87500              10.38037              44.32890
   AR                   56.04756              45.66394              23.83744
   AR                   87.60996               2.62466              33.47665
   AR                   79.96354              32.84572              60.04402
   AR                   61.39140              71.23420              11.50616
   AR                   73.62900              35.18410              52.65090
   AR                  100.10408              60.20344              67.38697
   AR                   65.95181              10.38350              74.91207
   AR                   74.25815              13.75674              24.50639
   AR                   50.11791              20.43129              30.87496
   AR                   62.01662               9.95581              21.82022
   AR                   91.91427              60.86285              20.92822
   AR                   84.98673              22.64525              37.93089
   AR                   79.83881              71.87027              45.28253
   AR                   74.69123              48.81415              52.64749
   AR                   99.39279              20.53959              30.01750
   AR                   96.67497               5.01110              54.64240
   AR                   78.31523              21.84313              23.57390
   AR                   98.16864              56.25242              60.69989
   AR                  108.49522              19.67041               5.66479
   AR                   67.03881              51.49682              19.95934
   AR                   31.64085              20.57842              12.29170
   AR                   56.89884              61.55727              76.86565
   AR                  108.39179              50.46729               7.78190
   AR                   88.27164               2.56685               5.42820
   AR                   98.36349              38.70689               5.09676
   AR                   71.19251              65.13225              49.49277
   AR                   70.72003              56.21953              17.16887
   AR                   82.31607               7.46017              16.88444
   AR                  102.22079              40.63957              17.13783
   AR                   97.73326              71.06911              60.98596 FRACTIONAL
   AR                   29.22641              11.31199              27.01656
   AR                   95.39513              38.14177              34.68678
   AR                   89.63814              27.19925              61.97164
   AR                   90.03761              31.18708              63.86679
   AR                  109.49647              14.10070              32.54968
   AR                  125.09757              55.83507              36.46417
   AR                   89.02063              24.32206              12.45161
   AR                  117.13763               3.24827              26.39804
   AR                   96.07812              61.66158              13.25147
   AR                   96.18178              28.94906              70.02486
   AR                   86.99762              72.85307              69.78675
   AR                   58.70734              14.19693              43.42705
   AR                  122.69554              15.15191              44.56756
   AR                   11.06757              19.17963               2.38300
   AR                  107.69715              62.62509               6.05367
   AR                  100.12094              29.09223              37.74117
   AR                   60.50777              55.21683              23.92530
   AR                   59.81146              25.33528              59.01682
   AR                   55.98606              37.55769               5.91936
   AR                  120.38416              69.77208              45.63496
   AR                   64.98734              75.63864              61.93831
   AR                   23.06622               1.25204               3.75905
   AR                   82.94212              72.30484              43.36436
   AR                   96.41217              58.32625              23.53814
   AR                   24.40066              28.89516              30.23276
   AR                   81.06412              32.11753              44.77037
