       206
            31.92787            76.18416
   AR                   74.34519              55.18839              76.18095
   AR                   82.32108              31.65702               8.23497
   AR                   77.34843              21.41864               3.83903
   AR                   97.02019               9.85404              58.36353
   AR                  114.19861              55.86209              46.09929
   AR                   83.24277              12.61928               4.42877
   AR                  123.98151              26.57466              47.73527
   AR                   95.04915               8.76213               9.83113
   AR                   84.62301              33.82460               6.12473
   AR                  108.88242              17.77283              66.48303
   AR                   79.52342              14.90465              71.48016
   AR                   48.18706              35.44684              12.33228
   AR                   95.69102              57.34048              71.72394
   AR                  106.03278              54.37716              70.15562
   AR                  113.64244              33.72399              53.80205
   AR                   59.20912              49.94457              34.80038
   AR                   64.51240              57.68038              14.15556
   AR                  104.64482              57.81716              72.85165
   AR                   84.91568              23.08822              61.43281
   AR                  121.59986              31.19139              70.86005
   AR                   64.55290              66.86004               9.00990
   AR                   63.41275              30.98047              53.58644
   AR                   87.94233              14.24415              71.97266
   AR                   63.91334              28.29711              73.00953
   AR                   50.31751              54.32165              55.20089
   AR                   55.65257              14.27753               7.31474
   AR                  110.88438              51.89339              22.18261
   AR                   69.49033              12.49578               4.41947
   AR                   73.36662              63.28820              47.51663
   AR                  114.51202               2.66526              49.81397
   AR                   92.98847               8.51424              20.38270
   AR                   48.31501              72.15244               3.66544
   AR                  121.11956               3.50344              27.18676
   AR                   79.77538               0.40179              20.09607
   AR                   65.84411              18.89259              58.43216
   AR                   80.00362              71.23347              16.42250
   AR                   10.53939              13.98581              13.04158 FRACTIONAL
   AR                   56.83107              45.94865              48.47429
   AR                   81.42322              32.07331              35.48423
   AR                  103.24235              64.49567               1.40049
   AR                   86.22247              56.44465               7.86800
   AR                  118.42392              15.00672              38.41053
   AR                   97.75157              46.47445              19.45105
   AR                   63.33027              14.36440              17.97957
   AR                  123.37622              23.25256              45.39393
   AR                  120.34975              12.33485              27.68186
   AR                   72.21361               9.49743              65.96101
   AR                  118.46129              18.00215              71.81380
   AR                   83.09357              68.98661              28.18877
   AR                  116.21974              45.98109              69.53441
   AR                   96.50916              70.53609              14.93015
   AR                   94.15769              35.19031              24.23645
   AR                   53.44192              11.47565               5.58122
   AR                   89.02278              75.28958              15.27275
   AR                  117.84025               9.91034              73.83167
   AR                  118.51346              48.67338              15.04430
   AR                  113.58133              47.28686              15.49161
   AR                  122.82926              20.32577              35.49050
   AR                   86.80967              52.50438              22.19586
   AR                   50.07835              39.57846              17.96137
   AR                    4.23993              26.45068              15.06330
   AR                  108.02545              21.32669              36.25976
   AR                   80.85214               3.52547              65.75398
   AR                   59.45459              28.98583              15.23697
   AR                   74.29680              19.21199              35.50225
   AR                   82.36513              55.36250              35.65401
   AR                   92.02869              41.14296              70.48216
   AR                  106.88878              21.87799              10.18213
   AR                  117.24169              17.83944              63.19865
   AR                   58.06861              74.21427              70.87271
   AR                   61.40987              60.46549              62.43624
   AR                   65.77249              15.14280              73.76724
   AR                  116.24642              32.13057              25.61913
   AR                   78.26754              14.02561              18.68652
   AR                  105.83941              53.80687              43.79041
   AR                  107.80459              54.83505               7.71270
   AR                  119.76776              54.08844               1.09801
   AR                   51.35577              12.11974              10.20048
   AR                  110.30127              37.58502              18.61810
   AR                   81.60399              51.90177              53.51163
   AR                   77.56082              58.96101              58.32044
   AR                   24.08537              27.71358              17.83822
   AR                  119.18371              36.23653              25.42278
   AR                  115.03527              10.44486              45.99326
   AR                   97.03298              11.51976              36.12697
   AR                  105.29288              11.95812               5.52188
   AR                   90.82391              64.72430              40.30839
   AR                   60.87336               2.87608              28.84048
   AR                  120.41973              35.63173               6.82803
   AR                   48.28305              21.86796              59.66354
   AR                  110.65621              44.41312              68.81525
   AR                   48.31610              63.62211              64.94312
   AR                  109.41539              68.72140              71.71447
   AR                   93.46585              66.94024              61.50419
   AR                   58.00062              48.00894              58.64194
   AR                   61.16128              35.72103               2.38581
   AR                   77.29008              45.60807              67.86544
   AR                  103.25897              68.13553              60.59790
   AR                  119.51529              37.70374              19.14356
   AR                   21.49498              11.92732               2.52683
   AR                   53.91079              48.84343              51.51198
   AR                   66.44674              69.60870              75.24643
   AR                   74.72873              42.81976              38.71100
   AR                   63.80807              66.96235              36.99459
   AR                   64.40088              45.75143              22.70278
   AR                   56.68030               7.69108              13.45024
   AR                   87.95347              40.17065              70.09231
   AR                   92.21970              41.24742              75.34490
   AR                   57.45317              12.28211              30.55487
   AR                   19.59245              19.54025              29.92745
   AR                   78.07944              18.18635              67.71835
   AR                    5.02718               2.73493              30.72099
   AR                  119.96182              49.12539              71.77642
   AR                  120.72378              35.44866              37.58671
   AR                  114.31838              72.27018              31.09636
   AR                   64.73513              19.91576              35.89169
   AR                   98.60230              17.96888              13.50661
   AR                   30.31342              12.44426               1.56660
   AR                   88.70480              25.63436              11.70620
   AR                   61.55198              19.17860              42.11761
   AR                   68.39365              50.21765               8.30886
   AR                   77.61404              27.44616              11.14041
   AR                  113.41043              26.83764              69.86280
   AR                  105.48118              61.67778              56.63405
   AR                  108.94333              57.06154              70.27834
   AR                   64.71893               2.51874              54.03647
   AR                   84.37008              52.70313               7.41706
   AR                   70.53937              11.34780              35.97224
   AR                   22.83029              12.33901              21.84962
   AR                  122.55784              31.80190              75.34634
   AR                  111.30520              11.81351              62.64675
   AR                   73.33524              39.66643              26.76350
   AR                   67.57261              24.95264              57.04555
   AR                   60.87213              72.73669              67.36466
   AR                   87.96747              64.57629              15.44591
   AR                  117.76168              47.81737              75.52501
   AR                  121.01783              70.70176              63.85119
   AR                   92.21072              53.13914              13.84582
   AR                  106.12170              32.19375              46.04427
   AR                   94.53793              40.31834              30.78834
   AR                  109.01115              67.76948              10.67630
   AR                  119.25136              11.36665              58.78664
   AR                   60.57122              75.21639              74.76581
   AR                   79.33976              12.89385               5.94176
   AR                   73.90745              25.12720              65.26457
   AR                  108.41447              72.59241              59.90306
   AR                   78.67124              68.46580              28.71545
   AR                   56.45710               9.38079              71.71574
   AR                  116.87013              45.68894              60.19801
   AR                  123.72431              30.24480              67.43507
   AR                   76.24102              28.38449              76.07172
   AR                   80.56168              34.90780              17.43894
   AR                   92.34588              20.92493              54.26293
   AR                  116.49099              14.01795              12.58013
   AR                   29.68861              23.40195              27.58712
   AR                   21.11229              14.55559               0.08410
   AR                   54.39641              22.31573              59.57229
   AR                   76.88999               3.08711              29.11605
   AR                   73.80771               3.97838              53.57091
   AR                  102.02055              34.28747              26.26299
   AR                  104.62054              44.26174              40.47812
   AR                   98.46559              22.99138              16.39255
   AR                  101.79555              28.08116              46.28806
   AR                  119.17351              37.78190              51.41816
   AR                  110.17731               8.91221              73.92351
   AR                  107.11150              47.85483              68.31026
   AR                   87.86519              32.88469              10.25879
   AR                   87.49881              50.54487              70.55396
   AR                   75.34590              24.62932              30.81031
   AR                   48.20531               5.60520              16.63182
   AR                   60.71241              10.44699              43.55139
   AR                  121.92980              65.73161              20.23267
   AR                   74.83673              40.90504              48.62562
   AR                   48.66321              71.70239              53.50995
   AR                  104.40754              70.93158              42.25197
   AR                   60.73188              23.03388              34.75753
   AR                   98.37359              24.18596              55.24408
   AR                  110.94341              70.82811               9.75557
   AR                   50.78547              49.21808              71.61808
   AR                   93.01784              63.30612               3.31519
   AR                  102.21669              72.58221              39.66696
   AR                   77.24245              51.44892              39.83507
   AR                  120.31332               1.39879              23.63849
   AR                   68.05309              40.08488              22.74421
   AR                  101.98048              37.91816              71.81637
   AR                  114.26368              58.98816              20.98946
   AR                   77.36457              48.40514              63.73146
   AR                   78.53830               7.07134               7.70976
   AR                   71.66631              75.17760              22.78121
   AR                  111.58644              17.27730              55.89541
   AR                   75.07297               4.97034              73.33508
   AR                  100.47762              55.36543              33.02793
   AR                   74.96651              26.17795              27.21656
   AR                   59.86335               6.37156              39.22466
   AR                  106.62807              73.44346              32.79133
   AR                   73.55476               5.11042              24.14156
   AR                   84.81913              51.45187              11.14036
   AR                  109.24273              20.80977              50.48135
   AR                   75.96039              50.41473               9.60051
   AR                   75.38895              67.72824              67.59645
   AR                   59.87264              42.79267              38.72697
   AR                  112.61312              51.01631              18.50156
   AR                  122.42406              39.79470              10.81240
   AR                   86.66391              45.50146              50.26283
   AR                   49.68456              63.33581              46.77893
   AR                  104.57917              59.14887               7.05632
