       206
            33.02829            74.36108
   AR                   61.08326              23.76245              43.06934
   AR                  110.70436              55.29586              44.58724
   AR                   64.39170              66.37453              59.14607
   AR                  116.87062              52.40905              25.75997
   AR                    0.03500              10.70954              29.71842
   AR                   85.20876              11.70642              19.86309
   AR                   83.58374               1.40536              33.24558
   AR                   86.70959              54.69672              39.58391
   AR                  117.79350               5.94580              61.07101
   AR                  102.48800              17.93894               0.12573
   AR                   84.89160              46.42058              11.69546
   AR                   96.00545              64.05603              26.67555
   AR                   63.93916               2.63349              72.29822
   AR                   68.65328              70.03469              20.08182
   AR                   74.67303               3.98313               9.22630
   AR                   65.81290              31.96139              44.50723
   AR                   94.65279              28.29889              47.48891
   AR                   85.45247              69.26819              29.98539
   AR                  113.71119              31.60627              19.38408
   AR                    0.48354              11.61210              19.69985
   AR                   56.69005              45.77189              74.31081
   AR                  119.44888              18.87078              20.14722
   AR                  104.42875              67.57693              69.56405
   AR                   77.81415              51.64415              12.10050
   AR                  109.01119              11.45238               3.03167
   AR                   58.38064              48.85464              10.14257
   AR                  101.74521              32.55796              39.69734
   AR                   96.18195              65.16458              30.92161
   AR                   98.77857              67.26626              27.47935
   AR                   92.52566              58.65841              61.33052
   AR                   59.51968               3.12655              16.05791
   AR                   75.56708              48.49206              47.20601
   AR                   76.58779              22.67712               9.05812
   AR                   28.60181               5.35859               5.09810
   AR                  109.53804              32.14931               9.04131
   AR                  112.44626              28.69245              17.43745
   AR                   78.29329              32.00233              74.08504
   AR                  107.80756              62.84146              30.64648
   AR                  101.16369               9.81155               2.10695
   AR                   85.24696              67.67816              69.90580
   AR                   77.49494               9.11257              44.26815
   AR                   81.94335              50.16698              23.38469
   AR                   55.00500               4.88947              41.83024
   AR                   54.41376              61.95701              36.58434
   AR                  109.39259              57.45891              23.06427
   AR                   97.38244               1.46616              12.92208
   AR                   52.35141              28.19909              40.28245
   AR                   97.57326               7.24902              16.45226
   AR                   71.91747              13.33947              54.74657
   AR                   24.66006              23.76128              19.98536
   AR                   64.25909               1.12287              39.58682
   AR                  108.39343              57.89358              60.36804
   AR                   68.36618              56.75605              16.64137
   AR                   73.82037               5.93023              53.85669
   AR                   55.68062              53.09364              73.18856
   AR                   63.85618              33.59654              41.13375
   AR                  122.09629               0.05844              51.28310
   AR                   28.30998               5.91055              19.54324
   AR                   11.58926              10.02808              16.56303
   AR                   64.98006              40.66110              34.97336
   AR                   70.74028              27.48407              47.86104
   AR                  104.05131              17.07081              62.85955
   AR                  104.20950              60.29929              13.47770
   AR                   79.13796              61.74189              69.68730
   AR                   97.65784              37.35032               4.96855
   AR                   75.14371              35.38103              32.80658
   AR                   79.35577              30.66787              55.14273
   AR                  107.68623              53.62508              45.09560
   AR                   51.72068              45.88303              54.07121
   AR                  107.64840              67.98662               4.67346
   AR                  115.03246              67.95915              13.56533
   AR                   50.98635              36.98032              29.54279
   AR                  106.14429              14.80416              21.88267
   AR                  103.22785              64.00108              46.90805
   AR                   91.68726              56.21559               0.70218
   AR                   83.05337              33.10094              40.96718
   AR                  116.95206              56.17241               5.40169
   AR                  114.40952              36.52109               2.33175
   AR                   86.66857               7.31364              60.71648
   AR                   58.21225              26.71634              66.35223
   AR                   80.82157              37.26642              71.26982
   AR                   74.34761              50.38815              51.60537
   AR                   90.50286              58.25438              19.57370
   AR                   72.92970              18.24634              53.54322
   AR                   75.70715               5.98429              47.01435
   AR                   65.83176              52.89606               5.95686
   AR                   29.49945               0.81699               6.54567
   AR                   64.89727               6.99386              27.67477
   AR                  112.10884              68.20701              17.32583
   AR                   96.71933              38.67482              49.42687
   AR                  122.80298              35.87895              48.37868
   AR                   80.51028              42.02323              54.12639
   AR                   14.94269              28.51605              31.39221
   AR                   98.27748              47.02288              53.18900
   AR                   61.36989              73.71902              47.96917
   AR                   70.66270              26.41245              59.10234
   AR                   55.78707              29.67501              30.49486
   AR                   70.85821              15.53442              65.94087
   AR                   85.33173              47.06845              38.31818
   AR                  111.73719              60.00016              71.30450
   AR                  118.44163              72.54058              58.15559
   AR                  119.76043              18.73986              40.86878
   AR                   94.55474              14.16761              72.34407
   AR                   77.13098              43.38084              42.01641
   AR                   98.52459              43.01649              68.03695
   AR                   84.64709              21.24244              39.01250
   AR                   86.05081              69.44553              49.18050
   AR                   81.83380              42.30388              17.57996
   AR                  122.26057              48.74830              25.66368
   AR                   90.19112              40.61740              17.22036
   AR                   58.90289              21.73375               7.63711
   AR                   94.52059              28.39636              21.39440
   AR                   10.06292              21.01389              14.84849
   AR                   57.39077              36.75784              55.32058
   AR                   69.23632               8.68450               2.00307
   AR                   96.23463              45.05998              64.20672
   AR                   56.05196              35.89477              35.69727
   AR                    4.49908              12.48127              16.94664
   AR                   65.94099              60.92655              66.84171
   AR                  109.22126              42.53221               4.12445
   AR                  122.56094              44.79366              10.65492
   AR                   89.71962              37.57678              63.58028
   AR                   71.64370              23.02010              10.66758
   AR                   89.19856              31.01520              49.51035
   AR                   97.88073              39.19961               2.43115
   AR                   90.66190              42.32804              50.65284
   AR                   86.66690              59.48374              54.71254
   AR                   64.77060              39.02753              12.68739
   AR                   64.90088              58.12508              66.86605
   AR                  116.63255              63.80328               0.17389
   AR                    8.22403              32.64314              32.80816
   AR                   52.31415              23.69906               2.77150
   AR                   85.00524               8.27588              69.96106
   AR                   61.67217              21.96415              31.96478
   AR                   50.39646              41.63883              22.23127
   AR                   73.25662              19.06366              31.75938
   AR                   63.79251              50.67591               3.91440
   AR                  112.10907              10.46770              43.30196
   AR                  102.33302              44.49300               5.52544
   AR                   31.76890              19.64194              13.69671
   AR                   71.90695               9.31123              26.60123
   AR                   84.45493              39.14574              61.70902
   AR                  121.36676              68.89393              37.51522
   AR                   72.13235              64.83858              34.46455
   AR                   77.06647              24.55904               6.50955
   AR                   96.98078              60.86964               2.52146
   AR                  119.81339              67.28100              33.34424
   AR                   50.16420              19.48107              50.87204
   AR                   89.68967              46.67752              45.81102
   AR                   88.31888              58.03109              21.81322
   AR                   77.32679              13.55145               9.15423
   AR                  101.59915              49.92612              64.40616
   AR                  110.38483              57.09079              62.89615
   AR                   88.37825              58.96385              32.42203
   AR                  122.40375               4.58031              63.29722
   AR                   71.55429              70.83054               3.48246
   AR                  118.97747               3.93592              51.71794
   AR                   57.03370               7.87511              12.54828
   AR                   61.61955              43.23438              40.86195
   AR                  102.01569              53.68012              14.28727
   AR                   96.95651              55.02322              26.91008
   AR                   92.85939              37.12361              29.16950
   AR                   16.73687              30.26095               9.17462
   AR                  106.44816               8.08532              45.83204
   AR                   84.51912              71.33460              18.17244
   AR                   75.54647              62.88145              67.60434
   AR                   93.72723              20.74215              21.61461
   AR                   74.43866              72.70732              63.95672
   AR                   55.94077              12.45843               0.36591
   AR                  106.40851              10.08169              49.17946
   AR                  108.76575              23.86269              18.34161
   AR                  120.09392              27.10892              23.47806
   AR                   65.42647              42.95067              25.64146
   AR                   86.76461              71.68879              39.87803
   AR                  114.39850              21.96703               1.84054
   AR                   82.52251              73.71457              58.89635
   AR                   62.21298              48.58501              52.83154
   AR                   66.75965              30.96081              48.95164
   AR                   73.79759              43.17061              16.91367
   AR                   86.82828               8.21620              20.56511
   AR                  114.52711              49.17637              49.25569
   AR                   74.42990              48.42516              15.50946
   AR                   80.68551              55.14869              56.43048
   AR                  104.32268              58.30665               2.40547
   AR                   89.61310              29.80965               2.78960
   AR                   60.38637              46.07651              56.44999
   AR                   93.30415              65.06093              67.61669
   AR                   89.82371              59.82467              12.12987
   AR                   88.92029              34.31719              31.26965
   AR                   67.90076               3.72166              37.03669
   AR                   32.07649              16.35204              17.51225 FRACTIONAL
   AR                   84.35081              27.57962              25.30161
   AR                  112.99987              18.55382              65.06971
   AR                   81.90266              70.33512              28.63503
   AR                  119.60265              67.78971              48.56346
   AR                  112.31420              27.38911              48.56609
   AR                   71.83838              73.00254              28.70554
   AR                   58.54577               4.40059              27.21703
   AR                   52.60510              23.50518              42.64295
   AR                  112.87992              42.79013               5.81907
   AR                   63.42264               2.98912              42.91487
   AR                   92.15406              22.04134               7.94463
   AR                   92.86016              52.42797              38.71716
   AR                   67.85384               5.12483              31.86161
   AR                   11.68163              22.15846               1.68763
   AR                   82.35026              40.53473              46.30760
