       321
            34.11924            56.81567
   AR                   52.64842              40.58972              10.86267
   AR                   51.41142              53.25833              16.57378
   AR                   60.72430              41.68435               4.73337
   AR                   90.25877              55.89584              52.36095
   AR                   64.13546              47.32514              45.24171
   AR                   73.08268              37.20245              25.57576
   AR                   31.25883              11.10712               6.05449
   AR                   99.36904               5.42600              33.87263
   AR                   87.79021              43.36677              34.00110
   AR                   72.76195              44.12939              22.81646
   AR                   91.50182               9.48884              54.22134
   AR                   76.21418              41.84840              20.35971
   AR                    4.40210              32.79296              12.41043
   AR                   88.43752              27.94244              42.42452
   AR                   62.10259              27.87429               0.60180
   AR                   92.00313               2.39494              41.77468
   AR                   91.54966              10.88676              30.53959
   AR                   62.63382              29.40040              24.88837
   AR                  101.34634              37.51183              56.37076
   AR                   10.64181               1.90487               8.86332
   AR                   70.18579              35.63951              48.79072
   AR                   87.13685              20.35682               1.19862
   AR                  100.34198              42.34304              31.93995
   AR                   73.82394               9.03855              14.53187
   AR                   82.25923              34.24503              15.64555
   AR                   57.59732              22.48609              26.36836
   AR                   83.25378              39.19750              49.03148
   AR                   94.52048              54.03599              23.27838
   AR                   79.03222              23.01615              42.58975
   AR                   66.89961              12.30742              24.04818
   AR                  101.85334              50.34107              16.27010
   AR                   58.68169              36.90845              22.27533
   AR                  101.90274              27.82027              24.42064
   AR                    4.46435              23.67453              29.63392
   AR                   87.99794               8.81926              43.61698
   AR                   95.72903              27.81849              36.55806
   AR                   98.49509               1.47516               7.43978
   AR                   84.70182              17.38344              16.87344
   AR                    2.44343              24.79489              19.22992
   AR                   86.89360              39.79232              28.53852
   AR                   63.83009               6.17515              47.89634
   AR                   51.50748              28.05326              13.79430
   AR                   98.08941               1.72954              33.53477
   AR                   63.82017              36.47578              25.43685
   AR                  107.07927              24.37430              10.64540
   AR                   80.71073              44.00922               1.96365
   AR                   22.38831              22.30849              32.48124
   AR                   10.80273               7.63021              16.53307
   AR                   58.03750              36.75176              30.57693
   AR                   20.82401               7.36214              24.43549
   AR                   65.78568              55.78826              29.33574
   AR                   20.12582              26.10499              30.90100
   AR                   24.91637              17.93552              14.67756
   AR                  106.36367              46.53661              15.31170
   AR                   32.64271               6.06763              27.21336
   AR                   66.76484              10.49304              51.68518
   AR                   78.09455              30.21912               8.52341
   AR                   83.74615               6.04221              32.13324
   AR                   52.99997              27.36507               1.42349
   AR                   67.61025              54.71679              52.48259
   AR                  104.30432              35.14061              16.28448
   AR                   98.55549              55.42791              46.21203
   AR                   64.62372              40.09315              30.50951
   AR                    1.85539              28.63735              22.53445
   AR                   67.95074              41.09388              15.58949
   AR                   83.27934              24.49224               7.20689
   AR                   58.51921              55.13717              50.45264
   AR                   87.49038              19.08724              38.80008
   AR                   72.14799              35.38275              18.97318
   AR                   87.44157               9.70695               7.79318
   AR                   28.17243              22.43311              31.42160
   AR                   51.44981              32.36793              19.54382
   AR                   83.67116              33.12734              11.36350
   AR                   75.87648               3.88871              43.59088
   AR                   78.55195              47.44382              51.25846
   AR                   98.27693              47.85742              14.01561
   AR                   29.45882              20.26766               2.11212
   AR                   78.84179              45.33284              54.04371
   AR                   72.37554              39.63278              19.71408
   AR                   14.45989              20.55878               0.84674
   AR                   52.58908              36.14241              50.09401
   AR                   61.24050              12.43032              13.02006
   AR                   66.43104               7.74384              12.28240
   AR                   90.39909              35.00961              21.14636
   AR                   29.82627              19.66570              17.95185
   AR                   62.48768              29.75934               4.13367
   AR                   32.72301               8.59700              29.33158
   AR                   66.57968              30.70095               5.25292
   AR                   86.92544               4.13241              19.78546
   AR                   78.01409              27.46276              20.67956
   AR                   66.47047              35.74460              30.17835
   AR                   93.90202              28.34248              27.74250
   AR                   80.90671               7.07566              11.37572
   AR                   99.29927              11.71348               2.07588
   AR                   52.46788              23.98229              43.94483
   AR                   64.88809              15.19557              37.82992
   AR                   61.39616              25.30901              31.49186
   AR                   65.97584              52.62088              10.93985
   AR                  101.24533               3.03280              49.58130
   AR                   89.42346               8.18903              11.71855
   AR                   84.91707              13.68646              38.04965
   AR                   98.66934              54.69089               0.62570
   AR                   75.46199              14.86746              15.67051
   AR                   31.52446              24.41932              29.02655
   AR                   73.71896              45.60462               1.83947
   AR                   53.03511              14.41254               2.79683
   AR                   55.61318              17.59786              38.12717
   AR                   72.19624              30.27670               5.25178
   AR                   61.55606               2.97598              35.75896
   AR                   54.44405              16.38748              46.83314
   AR                   90.83688               1.66854              23.66985
   AR                   72.14038              12.28026               7.92065
   AR                  104.17405              12.05243              32.59714
   AR                  104.46575              54.03535              20.49329
   AR                   75.41876               3.11386               6.41687
   AR                   92.85719              16.57268              30.94662
   AR                   94.91730              48.94310              11.98372
   AR                   60.01771              27.98580              33.59774
   AR                   97.66804               4.24840              12.54333
   AR                   53.99014               7.51022              31.57927
   AR                   58.83676              56.15667              26.13210
   AR                   80.12210              56.48008              46.07164
   AR                   74.14547              31.53157              20.92462
   AR                   21.05720               9.80526               3.16723
   AR                   56.01644               6.41530              26.57749
   AR                   57.56086              10.24279              42.08315
   AR                   79.78073              39.71723              50.97218
   AR                   83.66048              25.01598              29.81626
   AR                   73.89270              13.01475              51.79672
   AR                   93.78505              48.80606              44.80497
   AR                   51.82248              36.01930              39.10885
   AR                  103.80904              52.02917              54.81049
   AR                  105.89026              20.26817              46.16368
   AR                   69.78578              50.80159              42.88028
   AR                   69.18422              13.54594              39.58786
   AR                   91.87560               2.51738              48.26283
   AR                  102.43535               2.69059               8.79042
   AR                  102.82437              23.73686              54.66269
   AR                    4.11489              27.93468              12.23568
   AR                   33.74807              15.30852              10.44822
   AR                   15.09852              13.44729              15.94247
   AR                  103.16944              27.65755               8.82668
   AR                   87.72508              37.70957               1.67610
   AR                   82.36575              45.13886              44.42992
   AR                   70.98237              25.86555              19.80180
   AR                   75.78060              46.40371              40.76561
   AR                   56.28259              29.61947              15.50642
   AR                    7.22934               9.23204              30.58389
   AR                   93.90782               5.18315               3.49325
   AR                   64.99244              56.24963              41.14306
   AR                   85.34295              50.93930              55.71261
   AR                   97.22382              36.38502              24.41285
   AR                   95.82249              49.17286               4.57316
   AR                  103.66145              23.76532              47.70858
   AR                   65.84756              36.97325               7.06533
   AR                   71.84306              20.14989              50.38819
   AR                   59.12786              45.41160              51.39116
   AR                   52.47940              35.74018               9.86792
   AR                   84.61351              41.94924              47.35988
   AR                   71.11160              52.90417              17.37745
   AR                   62.71048              15.98471              28.62675
   AR                   97.97360              41.46255              20.06799
   AR                   66.84974              36.33199              35.44462
   AR                   56.69936              53.69643              27.48065
   AR                   66.71459               5.28372              39.52394
   AR                   87.98223               7.18551              53.93927
   AR                   92.22452              44.00979              13.11699
   AR                   62.72367              40.67121              25.60946
   AR                   96.31574               7.42922              20.88956
   AR                   13.04655              10.41629               0.12049
   AR                   65.39774              19.12828              50.15584
   AR                   96.38150              31.68413              43.31489
   AR                   53.66729              30.66003              53.89040
   AR                   28.47819              18.72342              14.32218
   AR                   70.07643              56.54146              43.41097
   AR                    4.18805               6.94259              28.18881
   AR                   60.93506              28.48831               7.92944
   AR                   85.56936               4.98425              45.82987
   AR                   83.83839              19.37084              10.81472
   AR                   98.54071               8.98463              38.30720
   AR                   54.93823              48.36984              31.28979
   AR                   60.42552              19.13254              26.07629
   AR                   28.54688               5.30914              28.55840
   AR                   82.87410              27.76210              10.27066
   AR                   24.59220              33.36568              12.99688
   AR                   81.67439              40.19106              21.09674
   AR                    0.56915              34.06389              13.12824
   AR                   83.98815              47.63972               8.97599
   AR                   89.20295              36.19181              45.55604
   AR                  103.94928              18.42713              30.44477
   AR                   60.58084              13.26513              42.37290
   AR                  105.11840              47.97081              19.74987
   AR                   78.82904               3.09494              25.65306
   AR                   64.78375              52.45277              37.59186
   AR                   24.34111              15.16687              17.84825
   AR                    5.38677               8.45363              24.83710
   AR                   56.89315              24.28751              42.34343
   AR                   92.36913              34.12388              52.88761
   AR                   53.59737              31.42642              30.56581
   AR                   72.82824              13.13101              48.12344
   AR                    1.42495              20.47117               9.37037
   AR                   53.44871              56.25121              14.02820
   AR                   77.13853               4.40859              37.54439
   AR                   72.62335              22.96945              17.28405
   AR                  101.52899              46.81732              27.86769
   AR                   82.92942              17.48514              53.09186
   AR                   99.78506              40.87894              46.30459
   AR                   96.38752              41.51075              53.40466
   AR                   81.25870              53.34340              44.04261
   AR                   95.20799              23.14848              38.00918
   AR                   55.37679              11.33996              46.00141
   AR                   14.76150              25.92576               2.90667
   AR                    2.63774               5.02376              24.69829
   AR                   61.43066              11.72618              52.30176
   AR                   83.69609              25.72299              18.92793
   AR                   75.90636              24.89642              23.44922
   AR                   74.21791              36.77151              22.12279
   AR                    0.17288              14.55222              22.31881
   AR                   60.21801              22.97724              49.26373
   AR                   71.95670              49.87584              56.19647
   AR                   52.13573              49.44710              19.89904
   AR                   83.94899              40.34451              16.88423
   AR                   72.73995              56.53975              27.87853
   AR                   63.64935              53.21043              34.54985
   AR                  100.12216               8.80369              35.25780
   AR                   61.25654              15.40629               6.98972
   AR                   22.75942              26.53946               3.20092
   AR                   62.28933               7.51650              23.42130
   AR                   18.53354               9.95778              23.03630
   AR                   99.38132              52.73679              50.58905
   AR                   87.68960               5.70837               7.19150
   AR                   69.44944              50.68962              11.96656
   AR                   57.10105              36.91967              16.39075
   AR                  103.41719              50.67720              45.38529
   AR                   13.38480               5.09513              19.83018
   AR                  105.23376               5.99380               7.37578
   AR                  101.09046              12.10077              48.04166
   AR                   92.81695              23.32912              32.94787
   AR                  103.71252               2.50553              39.22658
   AR                   87.77373              51.88499              11.20157
   AR                   72.88333              26.87543              56.35471
   AR                   70.23747              44.83723              52.56632
   AR                   68.79986              19.34522              44.65593
   AR                    0.59456              25.93984              27.98855
   AR                   98.06316              22.69907              44.14366
   AR                   82.25225              36.94007              19.33602
   AR                   57.72510              27.93061               9.27489
   AR                   55.56671              38.81852              11.81344
   AR                   53.66551              10.78927              29.87950
   AR                   82.87875               8.86525              14.57076
   AR                   93.24541               8.12731               1.57849
   AR                   65.60902               4.62878              14.07488
   AR                   99.69841              23.19157              21.22037
   AR                   52.59862              22.25576              17.33601
   AR                   64.63136              42.24075               6.33054
   AR                   74.18259              17.80726              38.43712 FRACTIONAL
   AR                   81.41328               6.48344              28.79189
   AR                  103.79738              42.29829              26.52598
   AR                   54.16400              23.38412              12.44800
   AR                   64.73575              38.08113              22.79473
   AR                   69.10185              29.34005              55.27303
   AR                   94.73439              36.20446               7.92158
   AR                   77.84641              19.61955               7.30974
   AR                   91.76808              21.08460               1.00666
   AR                   87.22940               5.13535              15.26915
   AR                  104.28859               7.94510              13.91829
   AR                   96.88048              15.80988              47.95477
   AR                   85.14781              36.22558              51.74801
   AR                   85.87525               7.97699              21.36616
   AR                   73.95574              48.53561               3.76197
   AR                   78.17449              34.32216              38.85931
   AR                   83.59650              47.99718              51.94456
   AR                   52.88391              49.35027              39.60259
   AR                   58.47298              27.58837              42.60398
   AR                   91.27781               5.76321              18.86859
   AR                   51.21922              17.79374               0.59105
   AR                   22.06053              13.74301              15.46066
   AR                   85.49571               7.79623               4.95426
   AR                   61.40586              28.90076              46.58809
   AR                   62.72494              47.41207               1.72870
   AR                  103.56416              37.66108              22.73954
   AR                   61.31396              55.20327              55.66473
   AR                   94.66378              32.93853              21.90903
   AR                   63.54633              18.71479              33.65904
   AR                   83.69606               5.29073              10.21722
   AR                   68.48606              50.05055              47.41632
   AR                   86.60763              17.69350               3.43423
   AR                   71.21545              13.48037              11.53385
   AR                   98.45590              38.44277              52.71663
   AR                  102.58590              37.68306              51.99630
   AR                   89.23121              32.45979              12.31859
   AR                  104.67955              28.79139               0.80776
   AR                  105.84995              23.47542              52.05403
   AR                    2.54460              29.85569               9.92085
   AR                   19.13704               1.25834              33.04588
   AR                    5.49071              27.52291              26.24621
   AR                   22.12598              20.96499              24.47954
   AR                  106.47954              53.19449              36.64513
   AR                   84.89780              46.18216              37.85377
   AR                   88.31794               9.86717              25.33656
   AR                    4.69162              23.07819              23.00027
   AR                    9.40035               5.74871               3.87927
   AR                   96.37537              18.16869              30.12663
   AR                   76.25317              11.36176              30.55024
   AR                   73.24472              37.90442              31.10503
   AR                   57.02199              41.06661               2.84109
   AR                   33.48877              26.32002               0.99874
   AR                   85.69552               8.53397               0.95666
   AR                  104.13477              29.73593               5.71950
   AR                  106.64692              38.40518              18.29503
   AR                   55.25366              40.52679              14.94331
   AR                   33.29776               3.04451              24.34437
   AR                   52.84887               8.59003              52.24811
   AR                    4.22580              26.61957              21.36699
   AR                   88.21424              36.90161              12.96296
   AR                   86.87172              47.86157              49.51432
   AR                   99.41753              19.63245              37.71186
   AR                   96.42332              44.91614              50.04325
   AR                   31.01064              17.31287               0.10848
   AR                   93.93761              47.68765              32.53955
   AR                   88.01587              51.59616              47.70155
