       461
            28.93526            53.54360
   AR                   56.84330              47.08963              26.33471
   AR                   46.19192              44.67765              23.02765
   AR                   67.81983              28.99284               5.53836
   AR                   78.88031              34.35929              49.22915
   AR                   92.94354              43.14558              22.01915
   AR                   82.64539              44.19515              50.19103
   AR                   66.22934              37.73051              51.78661
   AR                   76.02092              47.84504               8.48926
   AR                   60.06438               4.80696              13.89255
   AR                   81.92511              34.12597               2.68439
   AR                   64.73392              22.07727               7.61358
   AR                   57.15986              36.99643              31.60210
   AR                   79.11572              17.80694              51.65329
   AR                   19.74177              23.36045               9.42784
   AR                   87.36467              45.94635              45.94751
   AR                   44.96944              50.40034              33.27654
   AR                   60.62068               2.54244              17.06877
   AR                   78.28953              14.65587              38.39594
   AR                   96.10533              46.24283              26.20492
   AR                   64.99973              42.97966               2.01928
   AR                   48.45103              50.33762              50.47702
   AR                   81.94149              31.49622              33.27676
   AR                   85.83788              44.91849               0.14870
   AR                   63.51527              45.45605              38.27968
   AR                   60.39967              45.24782               7.59841
   AR                   44.31041               5.81088              12.22331
   AR                    0.49605              25.55555               7.93531
   AR                   59.58681              35.72291               3.16333
   AR                   59.70087              46.39822              23.51140
   AR                   88.79251               9.35905               1.03213
   AR                   71.42030              30.19797               7.23284
   AR                   60.77845              48.94423              36.15169
   AR                   78.77471               7.56532              45.05805
   AR                   83.87350              13.56397               7.15451
   AR                   51.48265               5.38142              24.76188
   AR                   58.82353              39.82765              40.17539
   AR                   94.30767              38.15807              34.07901
   AR                   75.60634              16.57990              26.13726
   AR                   25.40045              13.57189               2.28890
   AR                   91.46060               9.29187              24.83458
   AR                   59.75591              26.50435               6.68904
   AR                   45.00394               9.74408              40.49915
   AR                   94.51020              48.96100               4.17026
   AR                   83.54316              42.45748              19.34746
   AR                   82.89325               1.05057              19.24041
   AR                   52.75601              19.36816              25.58789
   AR                   63.70854              51.04526              21.71079
   AR                   79.58012               4.08303              23.16646
   AR                   47.37668              32.33779              18.86995
   AR                   87.13737               8.62544              49.89796
   AR                   73.44574              10.40334              12.88481
   AR                   84.30080              40.92763              29.45889
   AR                   44.62977              16.26213              34.80527
   AR                   67.56368              21.34439              16.28101
   AR                   57.05859              24.96079              29.79375
   AR                   59.84707              30.47031               7.71025
   AR                   50.83751              50.90426               0.18088 FRACTIONAL
   AR                    2.60248              16.55656               9.89958
   AR                   81.09420              36.74557              23.60369
   AR                   84.04848              35.30662              49.52427
   AR                   70.14141               6.04614              51.43184
   AR                   74.78821              47.69735               2.81875
   AR                   89.41829              42.50070              34.65636
   AR                   84.92775              16.69869               8.63888
   AR                   71.81794              52.17148              44.85862
   AR                   84.36513              30.02447               5.53605
   AR                   84.56346              23.50518               7.88439
   AR                   61.80373              24.75933              20.45592
   AR                   53.37918              35.48780              53.01816
   AR                   48.89430              48.51434               7.36333
   AR                   57.68510              10.99159              35.72358
   AR                   93.41407              13.01388              14.71475
   AR                   14.86654              11.56981              14.95497
   AR                   44.87838               4.30645              32.60616
   AR                   46.53324              19.83942               8.09033
   AR                   84.60055               6.68803              18.88844
   AR                   57.51802              46.77909              16.48705
   AR                   77.85046              21.82863              34.35855
   AR                   48.71966              10.27775              11.98628
   AR                   64.14267               2.52934              17.40673
   AR                   52.70746              33.13974              15.28250
   AR                   79.86673              34.61623               9.55374
   AR                   81.43534              26.42711               3.14289
   AR                   92.74796              35.55247              16.74466
   AR                   88.17540              11.21362              14.77592
   AR                   50.32345              25.08786              14.18422
   AR                   59.26135               7.84382              18.68698
   AR                   93.14497              40.25423              28.79242
   AR                   17.61469               8.16475              28.82123
   AR                   43.89077              24.04135               1.29821
   AR                   72.35593               5.62291               2.69451
   AR                   53.80984              11.87784               8.93237
   AR                   59.22497              10.67272              45.31096
   AR                   71.97897              12.71989               5.05905
   AR                   43.58517              33.56624              16.74420
   AR                   79.52150              45.34151              53.27444
   AR                   51.44198              37.60603              25.35702
   AR                   93.69621               7.14873              36.92925
   AR                    4.82806              21.08612               6.25520
   AR                   49.01868              11.69978              51.67886
   AR                   46.57247              35.29946              22.14640
   AR                   22.17080              14.09637               6.06477
   AR                   59.36703               0.39916              35.17012
   AR                   84.98166               7.63275              46.28119
   AR                   57.04267              24.74959              35.61226
   AR                   46.57529              42.49502               7.47232
   AR                   73.01124               6.75623              47.81403
   AR                   74.03126              23.75163              12.52251
   AR                   80.43049              13.26157              16.89383
   AR                   90.16548              15.94086               0.69554
   AR                   80.76045              27.12870              49.33740
   AR                    7.16843               0.53794               8.60103
   AR                   55.61751               0.23728              11.90482
   AR                   57.60900               6.60485              24.72043
   AR                   56.10857               9.23341               6.65193
   AR                   68.29168              50.66891              53.46342
   AR                   77.20822               0.56503              43.83192
   AR                   57.92747              50.91444              52.59926
   AR                   93.00717              10.61228              51.71900
   AR                   68.28939               5.70239              23.63705
   AR                   95.11487              26.01538              49.88993
   AR                   54.53446               5.62265              48.75475
   AR                   82.74236              29.53829               0.84814
   AR                   84.10935              10.79268              30.31483
   AR                   87.74679              52.89635              22.14024
   AR                   86.43935              19.30663              32.78556
   AR                   71.21465              37.67901              17.39684
   AR                   22.86773              27.25400              19.70677
   AR                   53.26641              23.16973              12.80720
   AR                    1.32871              17.34501               6.15540
   AR                   76.97264              41.87140              32.20449
   AR                   76.65275               4.55831               7.80575
   AR                   54.40251              33.09604              50.01545
   AR                   94.10635              15.07920              40.13688
   AR                   78.78533              31.85865              34.14986
   AR                   63.92873              41.26523              48.68339
   AR                   64.26861              43.62611              51.38431
   AR                   72.01068              14.56668              28.11329
   AR                   18.49749               7.55113              22.13995
   AR                   44.98300              52.57889              43.05140
   AR                   87.33215              45.20624               8.77304
   AR                   86.64888              36.39957              46.14520
   AR                   59.80304              15.38290              13.49842
   AR                   76.91209              12.06257               5.79502
   AR                   85.08272              23.21182              17.33947
   AR                    2.59120               6.27747              18.40761
   AR                   55.06007               5.53989               4.28884
   AR                   64.97683              31.84858              39.58875
   AR                    9.97496               9.17895               1.74699
   AR                   62.70761              13.65622               3.62212
   AR                   72.91237              18.01299               4.11988
   AR                   51.97873              50.04682               3.78601
   AR                   18.51587               0.89731              11.73639
   AR                   15.31288              23.87798               4.72533
   AR                   82.07360              26.80712              13.08925
   AR                   55.96034              38.28966              46.53416
   AR                   51.51314              27.54667              46.07075
   AR                   43.51245              12.17894               5.76415
   AR                   85.30693              23.28603              22.99138
   AR                   90.25981               5.47950              39.11148
   AR                   51.21140              41.02667              15.55348
   AR                   87.32308              25.43016              20.56686
   AR                   21.75246               9.96850              14.99391
   AR                   67.91531              44.96869               1.32605
   AR                   66.73287              20.48180              20.67868
   AR                   90.45422              46.52074               1.62252
   AR                   53.88956              41.99463              44.64643
   AR                   48.46176              43.52746              17.88432
   AR                   90.29582              51.27262              23.78848
   AR                   94.13212              52.44001              43.48666
   AR                   89.28409              38.14888              38.96415
   AR                    3.06369              23.12584               8.68711
   AR                   91.96694              10.50484              28.46862
   AR                   90.00480              15.44377              28.20591
   AR                   75.36435              32.71201              11.87548
   AR                   54.39632               0.05188               1.80350
   AR                   64.14506              16.56116              25.01036
   AR                   93.54182              28.75240              29.52556
   AR                   56.83825              51.21917              16.53312
   AR                   64.70264              52.58392              46.51680
   AR                   56.02925              47.60390               2.14938
   AR                   84.50643              39.06436              51.02436
   AR                   86.32559              32.02732               1.47553
   AR                   73.08888              36.16981              36.80175
   AR                   58.88086              11.56596               0.79255
   AR                   86.11872              19.83963              17.82964
   AR                   73.05075              19.29311              33.14970
   AR                   15.04038              27.81718              27.99747
   AR                   63.67659              12.88873               0.56863
   AR                   75.85968              51.86209               1.95452
   AR                   88.82915              20.45857               2.15644
   AR                   91.87788              52.42677              34.73038
   AR                   14.88560              18.51021               2.16444
   AR                    5.42627               0.44973              12.70697
   AR                   47.78604              21.86461              27.78506
   AR                   59.60851              44.91175              41.24477
   AR                   79.55243              28.65026              37.58975
   AR                   64.57325              29.17905              44.50951
   AR                   59.50777              41.94458              24.18825
   AR                   49.68727               8.52488              51.58842
   AR                   92.44537               2.08717              47.91318
   AR                   59.93438              26.01096              42.58232
   AR                   88.57411              25.34894              51.67747
   AR                   60.80122              28.52221              33.65537
   AR                   89.64385              22.65591              28.15615
   AR                   50.17770              19.03533              50.39056
   AR                   70.71730              43.61444              22.83573
   AR                   58.36347              10.43767              31.94039
   AR                   85.43890              13.20571              46.28032
   AR                   47.88812              20.16245              13.93883
   AR                   96.31277              24.07100              30.25082
   AR                   51.41224               3.92613               4.78656
   AR                   46.76433               6.37704              16.79710
   AR                   88.86721              31.67984              11.21015
   AR                   94.29494              28.27863               3.54195
   AR                   19.16269               2.15922              15.06779
   AR                   46.15140              10.41510              44.94677
   AR                   86.27601              26.38437              40.55029
   AR                   80.58693              33.35866               6.75237
   AR                   87.29078              39.08140               3.26830
   AR                   78.91622               4.40084              19.12702
   AR                   58.94078              33.21822               6.33759
   AR                   67.69436              44.96147              30.98862
   AR                   86.47767              45.49398              14.37435
   AR                   86.21107              29.33399              44.83378
   AR                   76.38510               9.60953              15.07613
   AR                   84.27701              13.88947              15.68608
   AR                   84.81990               5.94010              33.98017
   AR                   44.82296              27.91972              20.39445
   AR                   96.06459              37.18954              16.97539
   AR                   84.62199              16.00433              31.47223
   AR                   91.28598              40.27542              21.51528
   AR                   68.44707               2.13092              19.26733
   AR                   90.92858              28.66698              48.19288
   AR                   91.30897              25.11678              39.99118
   AR                   81.60995              17.89948              18.69134
   AR                   68.09127              14.78715              13.37981
   AR                   56.07436              40.29306              18.46179
   AR                   45.53527              26.74128               0.70043
   AR                   68.65052              38.65302              29.88007
   AR                   50.86895               6.37108              28.99355
   AR                   72.57400              23.47884              23.10878
   AR                   52.65349              52.84774              21.61992
   AR                   70.00435               5.74179              17.37289
   AR                   92.81592               4.74913              30.06685
   AR                   60.26912              25.09540               2.19549
   AR                   89.50086              51.16326              19.70952
   AR                   55.91504              30.93727              47.49144
   AR                   59.23245              45.06195              32.21869
   AR                   92.90574              19.02479              47.67698
   AR                   91.79388              50.00897              52.83375
   AR                   83.76394               0.86027               5.03759
   AR                   66.71138               4.56074               6.03091
   AR                   44.69876              39.79156               1.47671
   AR                   48.87576              11.47289              18.20965
   AR                   95.64763              41.39354               6.58722
   AR                   73.45355              51.60705              23.68623
   AR                   49.41825               0.12002              41.11737
   AR                   56.67627               6.56937              31.78911
   AR                   22.38445               5.98375               2.59697
   AR                   59.23212               1.49455              46.06488
   AR                   87.76888              30.03057              16.22642
   AR                   83.71911              19.03512              49.20682
   AR                   50.05053              19.69355              37.03254
   AR                   68.12863              41.23819              53.35054
   AR                   94.72360              27.50376              53.34518
   AR                   90.03621              22.68538              15.30575
   AR                   48.61227               4.28575              52.79591
   AR                   59.03214              11.29831              10.11649
   AR                   90.20784              17.05466              13.99154
   AR                   93.57606              40.93073              51.57195
   AR                   74.63379              42.33748              21.75842
   AR                   52.53842              53.43776              42.73496
   AR                   50.83920              29.11204              27.30392
   AR                   55.13931               9.03615              28.38857
   AR                   51.96343               5.35380               1.13949
   AR                   95.98924              27.20019               8.50926
   AR                   63.70017              27.52800              53.42463
   AR                   73.09658              43.97710               7.93853
   AR                   48.90401              51.10310              17.03644
   AR                   87.67114               7.98717              41.18212
   AR                   93.51325              14.07924               5.87329
   AR                   47.11270              18.37196              18.51777
   AR                   95.78001               5.00820               1.78718
   AR                   67.26152              11.74278              10.93445
   AR                   44.20967              43.89730              50.35158
   AR                   73.30380              25.88055              52.84282
   AR                   66.67897              22.00097              52.97908
   AR                    4.75358              15.91744              12.79678
   AR                   76.91209              46.20609               5.62718
   AR                   60.46301              32.26696               3.57050
   AR                   60.47421              12.34213               6.32305
   AR                   77.00287              19.37529              43.64371
   AR                   68.59564               8.69864               4.99573
   AR                   58.63509              10.41689              41.80439
   AR                   61.16362              11.15294              33.90437
   AR                   85.61458              39.58140              36.01660
   AR                   60.41315              33.85834              16.93685
   AR                   65.95970              35.05231              17.48051
   AR                   89.52709              34.89440              26.13337
   AR                   15.04843              13.96415              26.82655
   AR                   43.86887              26.47803              32.71092
   AR                   94.74599              21.08368               8.60897
   AR                   81.38654               7.80894              26.83292
   AR                   74.03104              49.34298              11.98628
   AR                   56.31630               3.74755              53.43035
   AR                   81.70093              25.52026              41.19937
   AR                   93.34104              22.76837              38.96205
   AR                   81.44439              15.56349              40.23462
   AR                   60.05774              24.83336              24.51942
   AR                   84.85198               7.46658              14.73899
   AR                   75.62808              44.06424              28.21542
   AR                   90.29242               5.57266              15.01777
   AR                   72.06656              40.47812               2.33991
   AR                   56.82090              21.13955              40.70747
   AR                   88.81314              31.60512              21.48420
   AR                   86.12053              30.99342              41.18999
   AR                   89.50296              28.13843              28.31359
   AR                   53.58203               2.35267              23.95030
   AR                   73.93774              14.72961              10.13529
   AR                   73.83270              16.63677              31.21966
   AR                   60.31672              37.65529               0.14546
   AR                   86.42024              33.13715              44.41751
   AR                   90.28369              48.59403              14.53208
   AR                   66.48830              30.57834              19.43481
   AR                   60.74864              23.33115              34.55657
   AR                   57.80054              50.76912              11.48689
   AR                    8.58321              18.73754               3.72283
   AR                   58.37277              13.20914              27.30010
   AR                   11.50938              13.64724               5.90632
   AR                   62.73611              21.88314              45.58137
   AR                   61.95156              12.91449              20.82245
   AR                   85.11743              24.64119              28.08316
   AR                    2.43963              13.14051               7.13121
   AR                   61.40087               7.71272              53.12128
   AR                   82.24396              31.41324               8.83755
   AR                   66.57499              15.40714              36.76430
   AR                   74.58115              22.96157              37.42373
   AR                    3.00314              22.64246               0.15160
   AR                   81.16132               9.80795              47.29026
   AR                   57.43569               0.24119              30.64307
   AR                   50.39607               8.95725              31.58542
   AR                   62.90176               1.18601              50.28510
   AR                   95.91026              37.10376              29.93888
   AR                   48.38585              31.84458              27.41875
   AR                   54.83237              35.23588               4.80644
   AR                   83.70025              20.88122              38.18329
   AR                   63.72105              39.57872              33.53960
   AR                   88.22716              49.43881              49.76043
   AR                   16.15059              17.43997              27.22742
   AR                   47.53540              48.25889              40.23528
   AR                   57.13927              29.34148               9.71491
   AR                   94.42213              45.62045              48.57982
   AR                   76.64314              41.49521              11.99063
   AR                   54.42781              26.77732              43.36652
   AR                   93.70291               7.36802              45.43227
   AR                   11.48354              24.89656              19.41985
   AR                   96.62229              40.23915              23.17765
   AR                   88.93275               5.53665              44.26412
   AR                   12.15333              14.99454              11.98181
   AR                   48.90322              39.03484              22.23458
   AR                   57.59929              24.62482              11.78782
   AR                   90.31000              47.52676              23.85570
   AR                   86.28978               2.19257              52.10950
   AR                   66.74086              51.61532              40.65530
   AR                   75.67035               3.68452              18.78757
   AR                   69.26293              15.41798              16.85031
   AR                   27.31477              25.95810              18.73924
   AR                   71.98073               9.29897              22.37996
   AR                   96.05984              18.35656              52.85963
   AR                   66.84660              46.45648              38.55345
   AR                   80.11100              17.09130               6.11912
   AR                   44.94449              39.28517              27.41368
   AR                   84.63761              50.43839              26.24719
   AR                   47.37013              18.88204              30.55773
   AR                   49.82038              12.27353              33.27833
   AR                   56.98348              14.79180              35.54084
   AR                   69.70115              51.89271               2.49836
   AR                   49.12616               0.34766              23.08784
   AR                   52.36524              15.11935              25.78973
   AR                   94.83042              45.37762              15.67030
   AR                   57.84865               0.08120               7.73011
   AR                   81.68377              42.72597              25.34935
   AR                   75.77541              41.46682               0.14069
   AR                   93.84099              33.65824               9.53167
   AR                   80.78840              48.91504              14.47877
   AR                   75.60948              38.53454              51.24635
   AR                   55.42967              30.69899              36.24522
   AR                   65.35328              27.21835              10.37209
   AR                   79.25481              35.02564              25.73094
   AR                   65.08752              17.95274               1.11014
   AR                   87.98062              26.30387               2.73445
   AR                   66.45807              45.18013              48.69391
   AR                   65.32686              25.64719              19.41211
   AR                   70.39097              48.23349              50.94553
   AR                   59.71554              38.96155              27.51247
   AR                   53.67271              50.47727              38.70357
   AR                   95.93639              12.66029              41.76637
   AR                   57.81835              28.57150              52.01061
   AR                   50.27678               0.09015               4.07812
   AR                   64.76095              27.75864              27.66929
   AR                   58.89908              19.24792              34.22659
   AR                   47.02749               6.45412              23.13511
   AR                   70.86786              41.09815              35.65333
   AR                   51.33344              27.56883              33.51888
   AR                   44.91989              47.16579              47.92230
   AR                   48.49929              24.38886               3.14956
   AR                    6.19341              11.72698              27.43910
   AR                   87.94780              12.40280              23.79621
   AR                   67.23264              31.24084              42.27814
   AR                   72.30972               2.95818              34.47838
   AR                   60.13555              50.20641              48.13321
   AR                   83.76058              24.77906              52.05795
   AR                   28.86536              10.41083              11.61690
   AR                   90.24377              27.14983               9.01842
   AR                   67.11249              20.52445              45.51165
   AR                   53.16675               2.10939              38.03252
   AR                   96.04216              11.93460               9.56646
   AR                   54.13771              32.92150              27.61959
   AR                   84.20218               0.04932              22.72461
   AR                   51.74871               0.74070              53.01119
   AR                   47.52341              36.09500              52.15500
   AR                   65.58286              36.78667              14.32060
   AR                   15.29668              12.45905              23.61844
   AR                   67.32679              45.08014               5.01786
   AR                   62.99427              42.81941              21.88120
   AR                   81.66588              27.92481              34.17782
   AR                   79.90643              44.15612              42.10229
   AR                   65.60115              37.47869              28.31451
   AR                   48.87550              46.44269              25.29813
   AR                   60.42856              21.37296              41.00662
   AR                   56.18306              21.16484              37.58374
   AR                   82.19698              39.06530              34.36967
   AR                   53.74744               0.79243              34.79664
   AR                   51.63622               7.46734               3.86775
   AR                   58.35930              34.86526              24.49548
   AR                   76.06737              25.04688               2.52087
   AR                   76.29102              33.36408              36.25886
   AR                   78.56538              40.92411              15.01853
   AR                   94.14784              13.73808               0.54547
   AR                   76.25661              25.40059              28.59666
   AR                   73.68378              39.04187              27.25997
   AR                   51.97278              20.15495              18.28331
   AR                   45.94500               2.75522              20.92112
   AR                   55.10559              17.12060              10.14995
   AR                   50.18602              49.77551              44.69104
   AR                   48.48728              51.20714              33.71087
   AR                   58.13057               2.64292              11.33225
   AR                   71.20957               0.55517              40.94676
   AR                   51.07890              48.52753              40.00702
   AR                   81.54344              14.14678               3.28375
   AR                   49.78227              33.15159              36.51468
   AR                   83.81184               4.00485              16.15035
   AR                   89.26716              52.03808               1.03909
   AR                   50.61995              26.09757              23.22216
   AR                   84.64172              34.98375              26.70678
   AR                   63.41560              17.59814              21.01710
   AR                   49.66536              43.63056               6.46559
   AR                   48.63159               6.43319              11.28398
   AR                   79.30031              43.52622              21.36107
   AR                   55.00413              37.21411              19.51418
