       391
            32.15360            52.91677
   AR                   67.06648              24.51512               9.19942
   AR                   58.26977               2.15610              32.32468
   AR                   99.54998              11.92523               3.49472
   AR                   71.37175              52.62916              39.40727
   AR                   93.17033               7.22334              29.79684
   AR                   66.58009               2.28446              17.49849
   AR                   61.18899              36.18308              34.08120
   AR                   77.06274              31.91050              17.65302
   AR                   92.93988              39.78229              22.50196
   AR                   72.73367              51.12215              48.85352
   AR                   13.10359              31.54220              21.60340
   AR                   90.88232              30.49539              14.63123
   AR                   61.84652              36.31183               6.68588
   AR                   87.76409              35.32098               4.83325
   AR                   63.36921              12.91619              10.89196
   AR                   75.51835              19.20691              35.42736
   AR                   87.24144              29.04865              15.37892
   AR                   58.41850               1.64110               4.76813
   AR                   55.77954              12.55114              35.09907
   AR                   12.75235              26.94266              28.01573
   AR                   67.19317              14.57638              11.98897
   AR                   72.95732               3.39490              11.64706
   AR                   94.76636              35.52431              34.09869
   AR                   93.35259              21.26557              45.16289
   AR                   76.55256              43.53954               9.23811
   AR                   91.35699               1.17184              37.61753
   AR                   51.82364              52.56041              16.11528
   AR                   96.95333              45.46398              39.01432
   AR                   93.02763               7.01345              14.27475
   AR                   29.52892               2.71480              14.63417
   AR                   10.47909              13.46417              23.01912
   AR                   73.05601              49.79683              40.45103
   AR                   65.28268              21.16616              12.34706
   AR                   50.74679              39.39903              22.13796
   AR                   49.36061              28.64429              41.63423
   AR                   51.26433               0.84160              20.70147
   AR                   75.55677               5.57343               3.69659
   AR                   54.85788               1.78513              19.35104
   AR                   52.71904              15.89559              38.13592
   AR                   86.41668              16.33130              33.62963
   AR                   92.85646               3.31652              52.24366
   AR                   78.22669              39.39914              24.16120
   AR                   79.64229              38.90525              49.04859
   AR                   94.76407               3.29722               2.35604
   AR                   52.01422              52.84579              43.13430
   AR                   64.43000              46.31687              51.79613
   AR                   89.34688              21.92465              37.95231
   AR                   96.29275              28.36150               8.97126
   AR                   90.35567               8.37525              47.87404
   AR                   86.26444               4.21926              30.52945
   AR                   50.90453              11.55970              31.90589
   AR                   75.25990              47.17271              42.20684
   AR                   81.53515               4.86036              36.76502
   AR                   81.21126              41.41827              28.89679
   AR                   89.56982              17.09329              50.84158
   AR                   53.56756               4.96450              29.03471
   AR                   90.04807              11.39932              36.18241
   AR                   91.38002              36.07852              20.14016
   AR                   74.70964              39.51032              24.60411
   AR                   86.83954              17.96737               0.88314
   AR                   81.32013              38.46643               2.84230
   AR                   96.19578              36.09644              18.42674
   AR                   19.14445              25.64836              15.89124
   AR                   68.95694               4.19826              37.10690
   AR                   95.92029              30.48476              21.59706
   AR                   72.73245              47.74124              13.09158
   AR                   81.98209              35.79087              40.18303
   AR                   70.94820              28.12441              44.71062
   AR                   67.69004              45.29285              35.38552
   AR                   67.05515              37.33378              34.21083
   AR                   16.59804              11.49424               9.27740
   AR                  100.76345              46.22579              31.45032
   AR                   53.53258              22.73043              13.81138
   AR                   97.51765              40.30924              29.42508
   AR                   10.07947              23.57624               7.11024
   AR                   99.38415              24.80881              47.97900
   AR                   73.80444              17.40068              48.81961
   AR                   57.55173              16.19656              17.60791
   AR                   29.35055              12.62191               7.22936
   AR                   12.59774              31.72890              17.71677
   AR                   24.13876              17.45023              32.02088
   AR                   96.96368              19.27112              42.81196
   AR                   53.07147              18.57370              30.25754
   AR                   30.60638               6.53768              21.03527
   AR                   58.77759               9.45982              35.75986
   AR                   48.59641              15.99940              41.46027
   AR                   13.55701               3.06179              28.10499
   AR                   87.71999               5.10932              51.84498
   AR                   61.44291              20.08072               7.29572
   AR                   56.73865              51.87587              23.73841
   AR                   74.22150              46.22691              18.80412
   AR                   24.88797              12.71965              28.50833
   AR                   94.84512              21.91521              38.31165
   AR                   98.15116              26.06297              30.21084
   AR                   86.26337              44.79721              28.33657
   AR                   76.09766              43.58126               0.90075
   AR                   49.05368              41.44417              48.15310
   AR                   81.06696              14.12014              49.05363
   AR                   56.55274              20.37528              47.61187
   AR                   92.54596              29.47129              19.23964
   AR                   77.11985              25.69514              25.74976
   AR                   59.48178              43.47504              42.23598
   AR                   58.55825              46.62100               9.47946
   AR                   69.48344              15.13339              17.48391
   AR                  100.88734              36.49335              23.28420
   AR                   88.12034              41.52263              40.66567
   AR                   96.73858              24.33045              36.64275
   AR                   30.96567              27.39030              21.68498
   AR                   29.34685               9.20150               7.99239
   AR                   89.79353              51.30364              47.29885
   AR                   78.29900              40.06163              14.56517
   AR                  100.17732              37.68036              39.73645
   AR                   56.49476              38.99102              46.70207
   AR                   73.77106              14.06470              47.13901
   AR                   95.61371              25.33427              47.70633
   AR                   26.49642              28.28296               4.62209
   AR                   97.85830              26.58548              41.53606
   AR                   85.77171              16.19579              20.08766
   AR                   75.24551              45.40453              46.29320
   AR                    4.27037              15.92827              20.36038
   AR                   56.10084              35.67804              50.40404
   AR                   94.21786              38.69730              30.09107
   AR                   56.72357               8.40963              27.39508
   AR                   64.40442              12.13913               4.29565
   AR                   73.60184              42.24845              28.14403
   AR                    7.06891              20.95980              24.64878
   AR                   82.77966              10.24543              35.65015
   AR                   90.48353              15.70275              24.84635
   AR                   72.23590              17.82736               5.20286
   AR                    1.97245               1.78868               3.38743
   AR                   63.58082              37.63564               9.33362
   AR                   82.65744              30.00958              50.96958
   AR                   51.78371              12.95712              35.23319
   AR                   67.08426              29.56712              17.50614
   AR                   68.86999              17.60885              38.61146
   AR                    6.57560              29.94252              29.08521
   AR                   76.67969              16.52400              34.00491
   AR                   97.95839              25.95388              24.30930
   AR                   52.76589              24.93968              23.89777
   AR                   12.48556              31.97702              14.15099
   AR                   30.14959              20.52415              13.68685
   AR                   92.06345              34.78582              11.20788
   AR                   53.26063              19.04516              25.41723
   AR                   66.00315              52.11822               8.78828
   AR                   68.40236              12.56047              42.66526
   AR                    8.63519               2.93454               8.02745
   AR                   76.95290              14.06721              23.22915
   AR                   89.72785              28.40626              49.29905
   AR                   84.61142              33.06184              33.39026
   AR                   74.76258               7.90363              23.91473
   AR                   90.18798              21.87393              10.66710
   AR                    4.50624              11.00994              19.91443
   AR                   63.59115              50.35661              31.18976
   AR                   56.44072              25.66803              50.89048
   AR                   28.88673              30.00499              26.07499
   AR                   49.42080              35.06074              38.31252
   AR                   52.14411              43.55597              24.79906
   AR                   84.14399               5.84830              28.62556
   AR                   77.08342              36.09685              47.62877
   AR                   49.37075              48.44617               1.76973
   AR                    6.22059              15.54976               4.32141
   AR                   89.29214              24.84936              42.88877
   AR                   83.24413              31.18397              20.41828
   AR                   95.81144              50.51789              28.28242
   AR                   83.53850              44.15734               1.20046
   AR                    0.67833              10.28521              15.77583
   AR                   54.29483              50.33607              36.24838
   AR                   69.96024              29.55100              50.73580
   AR                   59.25224              50.10577              51.38068
   AR                   89.12628              45.51668              30.92612
   AR                   13.75845              18.91459               4.06323
   AR                   98.16945               7.74400               1.23475
   AR                   76.35443               6.36666              36.08405
   AR                   81.14232              20.79906              18.77771
   AR                   81.89104               1.70390               3.89234
   AR                   79.10145              18.58862              20.69301
   AR                   83.84401              52.60293              23.52837
   AR                   16.68434              25.72347              18.31829
   AR                   75.64226              27.66200              22.71362
   AR                   58.65364               0.78043              11.00486
   AR                   65.36094              46.83134              44.77615
   AR                   70.47230               3.33186              17.65842
   AR                   71.55092              35.25396              25.81657
   AR                   50.09408              16.93212              31.19010
   AR                    9.67096              27.33145               4.83191
   AR                    2.78988              26.62121              17.80422
   AR                   55.99288              28.93745              23.29383
   AR                   89.52893              36.93339              34.91110
   AR                   93.89136              38.65731              50.70108
   AR                   70.59623              40.08208              32.12513
   AR                   61.87411              35.62091              28.92217
   AR                   63.93872              22.47885              22.62871
   AR                   52.45290              37.26210              48.92091
   AR                   80.37003              38.82217              31.76019
   AR                   78.90413              33.56617              50.55032
   AR                   86.78128               9.90623              38.37923
   AR                   83.67068              21.58183              36.19025
   AR                   93.79144              10.50956              20.23462
   AR                   86.34239              28.67424              41.97842
   AR                   92.21230              19.29168              17.95428
   AR                   74.54129              22.25697              32.93327
   AR                    5.20976              32.00778              17.48391
   AR                   77.83123              50.23952              33.14384
   AR                   49.36137              48.22121              38.75962
   AR                   95.22150               0.42144              48.64498
   AR                   98.77903              16.75445              24.21911
   AR                   54.84766              18.50930              38.08160
   AR                   98.96311              52.53202               9.03460
   AR                   97.83985              46.02561              17.30734
   AR                   17.53484              21.02756               4.41865
   AR                   92.58883               1.99616              10.70553
   AR                   71.10513              24.95349              48.01513
   AR                   54.88793              28.98150              51.23568
   AR                   87.17033              50.31935              26.53874
   AR                   76.43254              34.03605              12.48361
   AR                   64.96818              17.62252              36.48044
   AR                   93.12353              11.61937               2.59155
   AR                   11.49755              12.58927              18.32038
   AR                   51.29032              28.64653              44.65929
   AR                   79.47822               1.58432              48.24194
   AR                   52.30891               3.98614              18.29165
   AR                   20.94022              17.70016               9.77518
   AR                   68.81852               5.53064               8.51324
   AR                   75.28964              45.03333              33.57242
   AR                   99.68672               9.16256              27.25880
   AR                   87.25399              35.90185              52.13804
   AR                   71.20203              23.37203              12.92692
   AR                   74.36732              47.56351               0.37513
   AR                   99.16806              45.88718              35.02392
   AR                   56.43717              41.47569              43.65356
   AR                   75.22520              49.02489              37.33262
   AR                   73.25610              28.40034              13.91920
   AR                   87.33267              42.13571               1.06840
   AR                   80.28340              24.82035              47.96376
   AR                   81.71948              35.01248               0.14944
   AR                   77.82155              43.94012              30.81661
   AR                   94.20830               4.87840              10.11878
   AR                   57.98238              38.45122              32.83313
   AR                   70.92106              22.09544              32.99359
   AR                   98.96973              10.08866              52.05372
   AR                   25.04740              19.11077              14.99239
   AR                   92.07200              44.95043              26.54797
   AR                   81.43164              52.76805              11.92442
   AR                   12.35810              20.42460               0.85076
   AR                   73.74588              46.76812               9.63002
   AR                   20.35077               6.50244               2.11365
   AR                   13.78075              13.76120              22.12258
   AR                   77.58247              19.45843              47.72351
   AR                   10.45812              20.01071              22.42945
   AR                   98.28827              32.13284              15.16549
   AR                   79.58180              50.49349               7.26685
   AR                   56.69211              23.70937              20.43875
   AR                   88.27477              21.66836              52.90610
   AR                   52.46895              42.65564              46.27624
   AR                  100.73379              49.02460              11.42194
   AR                   78.04393              10.27006              12.90971
   AR                   54.04346              46.94939              39.46561
   AR                   79.23327              27.05598              22.99972
   AR                   30.36715              26.99248              25.88491
   AR                   73.13529              37.09511              33.07365
   AR                    9.08983               5.31820              13.76273
   AR                   79.86269               9.86308              52.55302
   AR                   51.94224               7.75374              45.04779
   AR                   65.19778              40.13663               6.70833
   AR                   11.60332               2.58594               1.37156
   AR                   83.11885              49.47624              28.29375
   AR                   97.07149              43.35176              52.71502
   AR                   98.48891              50.39541              24.49308
   AR                   91.85988              27.03921              11.65292
   AR                   62.31272               3.51286              15.83393 FRACTIONAL
   AR                  100.19396              11.96896              42.33031
   AR                   90.92981              29.05488              34.73066
   AR                   54.47446              36.46437              21.43172
   AR                   90.57571               9.78584              25.75272
   AR                   51.72047              22.93283              38.72570
   AR                   98.23560              25.84880               6.04975
   AR                   23.84393              11.33279              18.31526
   AR                   88.72473              23.24598              16.72681
   AR                   53.73330              11.36670              47.26013
   AR                   71.26121              39.45180              47.18373
   AR                   69.72572               0.00667              17.12623
   AR                   50.94737              25.42101              48.15575
   AR                   82.66372              45.18350              28.29832
   AR                   68.45863               8.79171              36.72048
   AR                   13.66449               2.92458               7.98056
   AR                   70.17306              19.99951              46.27143
   AR                   23.60599              18.70931              11.74483
   AR                   24.00366              20.44267               1.21250
   AR                   57.04514              32.99491              23.00692
   AR                   80.71976               3.15643              32.64923
   AR                   75.90054              23.06868               4.32961
   AR                   58.57138               5.59264              38.85737
   AR                   48.35186              21.67720               7.26888
   AR                  100.21361               4.66121              35.67355
   AR                   49.23358               7.01589              38.24406
   AR                   89.87069              44.12254              35.02743
   AR                   64.23805              17.67823               8.18481
   AR                   69.61369              34.57257              33.66975
   AR                   73.45250              30.56467              43.36200
   AR                   66.05567               2.62968              29.07879
   AR                   93.68702              32.84989              43.17019
   AR                   73.86570              19.67437              46.31699
   AR                   73.58088              34.39785               8.43164
   AR                   50.59115              15.07690              13.30739
   AR                   80.03509              20.22010              42.96198
   AR                   95.50740               3.71490              19.73330
   AR                   48.41075               9.50158              44.86318
   AR                   93.35600              10.52404              27.22220
   AR                    8.71879               0.25735              13.33110
   AR                   62.10483              28.72515              43.92240
   AR                   61.53332               4.01490              25.49553
   AR                   50.39583              34.94874              20.54765
   AR                   73.49151              48.15191               3.60556
   AR                   48.95689              15.08607              17.16735
   AR                   80.12608              36.43313              15.79522
   AR                   96.79937               0.12580               2.16111
   AR                   89.94743              28.14223              22.53343
   AR                   99.89084              21.63200              27.99085
   AR                   66.21011               5.99245              33.75113
   AR                    7.16437               4.96589              26.21807
   AR                   91.59109              16.77518               1.84634
   AR                    5.31980              21.11722              11.07803
   AR                   77.82613              13.02785              15.88064
   AR                   56.22127              27.50345              30.01496
   AR                   77.67426              43.55911               5.31712
   AR                   50.26734               3.09269              43.23704
   AR                   96.24484              49.86453              51.40615
   AR                   86.85223              32.24814              23.33407
   AR                   99.64410              49.74270              32.39037
   AR                   86.13526              23.24713              31.60774
   AR                   88.09832              44.65720               6.95503
   AR                   99.47496              16.20658              20.62532
   AR                  100.81770              28.55678               9.89587
   AR                    3.82667               2.00726               9.37141
   AR                   72.86704              15.53864              51.90923
   AR                   86.38049              51.28844              20.38501
   AR                   61.22524              52.32442              26.48439
   AR                   90.73833              14.72567              14.34715
   AR                   71.14918               1.27684              31.19563
   AR                   60.29962              40.74229              49.46921
   AR                   73.25216              21.23173              38.38996
   AR                   98.55230              43.32761              28.90086
   AR                   62.36760              14.46105              34.35127
   AR                   87.66287              13.92584              44.93464
   AR                   89.55487              15.44576              19.43932
   AR                   82.77468               1.64386              38.95074
   AR                   96.22113              31.65086              40.33534
   AR                   76.30766              36.77494              14.56494
   AR                   83.60635              33.42737              38.85402
   AR                   55.79273              23.50796              16.72059
   AR                   84.73584              31.10675              17.58960
   AR                   53.48412              46.45889              22.64572
   AR                   85.27034              44.13203              51.00604
   AR                    8.79560              31.79814              17.07823
   AR                   76.47417              15.61047              44.45440
   AR                   56.96465              51.05539              34.11374
   AR                   71.78255              18.48697              11.64481
   AR                  100.32725              35.20490              12.23262
   AR                   61.69733              13.81980               7.45385
   AR                   71.96457              45.51745              32.11890
   AR                   48.45538              38.31968              19.63660
   AR                   69.37424              31.50043               7.42078
   AR                   59.06622              12.89506              11.89915
   AR                   54.38322               5.17963               8.53325
   AR                   26.13343              27.71954               1.48442
   AR                   94.57387              15.60599              49.06813
   AR                  100.97862              28.88286              34.62664
   AR                   48.52446              49.45531              47.57865
   AR                   57.36452              11.50930              31.16744
   AR                   82.69556              45.35065              16.22307
   AR                   60.81887              15.81724              19.29207
   AR                   65.20968              34.95877              14.16003
   AR                   96.87073               4.32176              15.41354
   AR                   85.92503              47.71957              30.29166
   AR                   69.18109               4.88772              14.48832
   AR                   94.60948              19.62795               6.82657
   AR                   96.02797              41.65395              23.03945
   AR                   56.44208              49.63228              48.55621
   AR                   88.41886              46.37843               2.05682
   AR                   98.28566              12.80870               7.16987
   AR                   77.57175              27.42154              10.66077
   AR                   68.45752              37.50252              28.94381
   AR                   87.78340              35.27509              40.47881
   AR                   96.00669              12.13804              52.01604
   AR                   50.57913              12.39843               8.60844
   AR                   97.61856               7.00697              22.86663
   AR                    5.00221               4.44633               6.85513
   AR                   69.57475               9.58311               3.03479
   AR                   59.75974              11.26891              50.91099
   AR                   18.08685              31.32182              25.06282
   AR                   76.25063              39.25822              49.72795
