       266
            33.47923            67.01486
   AR                   11.70601              29.91755              23.53261
   AR                   10.76288              20.44820              16.56681
   AR                   22.29102               4.46808              21.13355
   AR                    5.48287               5.83135              12.46558
   AR                    8.51322              12.21063              32.38666
   AR                   10.26839               1.42237              31.86286
   AR                   18.05851              16.26115              13.43846
   AR                   29.95543               0.17196              31.97492
   AR                   30.09858              33.07458              24.12719
   AR                   29.72398               4.44706               8.18722
   AR                   28.20125               3.62903              33.34098
   AR                   32.25769              14.02565               2.46360
   AR                   15.33314               7.26590              23.52060
   AR                   22.51808              10.15757               4.03447
   AR                   22.46179              31.86943              12.48741
   AR                   24.31676              14.93769               9.99972
   AR                   28.93189               3.94045              25.99299
   AR                   23.22271              21.49527              12.00564
   AR                    8.71770              21.74109              30.98605
   AR                    3.56749              20.57195              25.77852
   AR                   21.90785              31.86386              28.07698
   AR                   14.33871              30.91266              25.14837
   AR                   20.43985               7.25844              22.88306
   AR                   27.62621              13.79006               8.30577
   AR                   56.83574              41.84610              16.05716
   AR                   84.68260              26.41404              65.70445
   AR                  101.76211              61.87396              61.96296
   AR                   74.66292              10.29060              22.20057
   AR                   90.98509              13.47860              17.87237
   AR                  109.92804              54.68744               6.65143
   AR                   81.72910              60.79858              17.95429
   AR                   68.63046              51.33247              13.23713
   AR                   91.77758              63.07727              18.87275
   AR                   94.29524              21.74863              57.25008
   AR                  109.97719              51.40464              58.26214
   AR                   81.90809              44.15522              19.99104
   AR                   75.16135              60.40782              59.46926
   AR                   77.95936              15.47690              53.56662
   AR                   66.23255              29.40783              16.87783
   AR                   52.67165              27.69217              38.68188
   AR                   55.15414              27.59509              20.83529
   AR                  116.27786              12.05900              49.04137
   AR                   72.21406              60.61333              13.24152
   AR                   95.58507              55.45539              39.29584
   AR                   69.72048               1.52247              36.39663
   AR                   71.35518              14.60134              56.25736
   AR                   99.95583              14.20603              34.99551
   AR                   80.48289              59.45356               6.39982
   AR                  113.03931               7.42429              46.10026
   AR                   89.85277              33.43512              61.95622
   AR                   73.81663              64.23000              40.57988
   AR                   86.31833              43.31787              58.12015
   AR                   58.44127              40.01621              37.79939
   AR                   97.08199              34.61012              27.06056
   AR                   94.75142              33.30254              32.02791
   AR                   58.27529              46.49005              65.38112
   AR                   98.93279               2.61726              34.86720
   AR                   64.28503              11.89021              36.40039
   AR                   70.21383              54.61167               9.66424
   AR                   59.55350              27.44340               1.38462
   AR                  103.09921              24.83671              32.36577
   AR                   75.95938               7.51456              48.38208
   AR                   66.31013              38.89315              45.48651
   AR                   52.11402              56.20851              29.90280
   AR                   76.47608              38.60163              13.68332
   AR                   98.23098               1.45821              43.99940
   AR                  106.59113              65.92837              54.22448
   AR                   66.25649              61.68176              16.01978
   AR                  100.53423              15.61231              31.19991
   AR                  101.37171               7.92439               5.63499
   AR                  110.60017              41.37913              46.15641
   AR                  104.39208              22.86049              54.22990
   AR                  114.04072              52.76291              43.96164
   AR                   76.58920              23.32066              54.58358
   AR                   57.28646              40.61107               8.32148
   AR                   65.78075              27.86165              42.76134
   AR                   87.17356              57.06801              36.66776
   AR                   86.68333              53.68990              65.31345
   AR                  109.75584              13.70635              47.24424
   AR                   67.59497              32.26261              31.78040
   AR                  113.47461              27.11917              18.85498
   AR                  106.74901              62.17147              59.55305
   AR                   68.37237              35.95994              40.23687
   AR                  116.32270              42.37281              43.90714
   AR                   68.33715              48.97206               6.62361
   AR                  112.96532              15.74640              22.02848
   AR                  100.21213              37.91188              24.26537
   AR                   75.36029              61.53386              12.34173
   AR                   55.26379              16.40030              54.91553
   AR                   71.85706               8.36167              17.55397
   AR                  106.78450              18.09176              48.02902
   AR                   62.47394              18.33474              56.14535
   AR                   90.47020              57.77789              12.58274
   AR                   80.52734              31.72362              13.62550
   AR                   58.48193              28.11551               9.55403
   AR                   93.54908              29.44151              64.85444
   AR                   51.84434              36.49850              19.00091
   AR                   82.52904               9.06185              63.52527
   AR                   83.66038               8.21459              47.80915
   AR                   58.72129              25.51748              12.60577
   AR                   81.58495              33.55422              66.76432
   AR                   52.61409              23.06145              27.61412
   AR                   52.53098              53.35993              40.07863
   AR                  116.90987               0.96171              17.28201
   AR                  104.18532              40.52705              27.24284
   AR                   55.46722              55.41734              54.12275
   AR                   86.56822               9.81441              37.94911
   AR                   78.75379              21.75503              43.70302
   AR                  111.72229              29.46626              16.99690
   AR                   51.97620              62.11598               2.19571
   AR                  103.53357              30.26472              10.47296
   AR                   65.54877              47.03133              19.95565
   AR                   75.25104              60.13305              54.25420
   AR                   56.21254              15.97866              21.77577
   AR                  106.11802              41.30306              44.21583
   AR                   91.26604               5.35445              14.94371
   AR                   93.90229              39.70648              15.20279
   AR                  115.46883              47.03107              55.56672
   AR                   72.95663              22.50909              40.96037
   AR                  112.48827               6.88891              29.92874
   AR                  116.33257              31.47053              18.65461
   AR                   89.15864              65.15541              22.99413
   AR                   68.32571              36.20880              43.87725
   AR                   79.35053              44.47415              17.88475
   AR                  116.95513              36.88301              11.35261
   AR                   96.79897              59.01853              15.18754
   AR                   66.59702              15.02530              22.59522
   AR                  112.63162              21.81879              41.39694
   AR                   98.81986              47.23439              56.54019
   AR                  102.00232              28.64216              30.52812
   AR                   62.52160              55.70875              44.15911
   AR                  108.92354              14.73114              55.57135
   AR                   67.57758              48.34685              53.39218
   AR                  110.73166              21.34673              37.09386
   AR                   82.90875              61.86305              31.92745
   AR                   65.82676              47.06231              31.75862
   AR                   94.16429              48.65990              53.92104
   AR                   72.03927              32.25419              25.20919
   AR                   86.50114              53.80387              20.56514
   AR                   70.77421              50.67118              20.18227
   AR                  116.75796              51.17942              56.74381
   AR                  104.13640              20.59278               7.76919
   AR                   90.28551              30.77429              41.28603
   AR                  112.54013              16.25618              44.17834
   AR                  108.36902              47.21668              42.32473
   AR                   56.05962              63.77916              41.39769
   AR                   95.81305              59.58425              55.29949
   AR                   56.20731              41.46762              23.83473
   AR                  111.18895              11.39490              52.63964
   AR                   80.14945               7.31589              18.69412
   AR                   69.80849              39.76100              58.26832
   AR                   64.60924              64.07324              13.08927
   AR                   82.48017              27.47305              49.44215
   AR                   55.75324               7.71277              35.76636
   AR                  116.23578              31.36414              58.65374
   AR                   62.12203              58.76469              51.86973
   AR                   52.70075              58.13691              15.50643
   AR                  114.18687              15.68044              63.37940
   AR                  114.26363              66.85881              56.92316
   AR                  100.95436              27.24461               5.44127
   AR                   89.83446              63.38503              65.66175
   AR                   51.83818              10.39974              30.82465
   AR                  113.66213              22.14673              34.35879
   AR                   57.83554              48.20583               9.40670
   AR                   52.35659              65.44430              57.17284
   AR                   70.71357              24.91712              66.90294
   AR                   64.33727              40.86397              28.44245
   AR                   53.86575              31.51170               5.14488
   AR                  102.20607               7.05047              63.14304
   AR                   86.39004              55.86264              52.59130
   AR                   77.18771              10.47397              31.65099
   AR                   59.96316              51.56420              14.19349
   AR                   82.40571              18.16472              44.69027
   AR                   64.85052              23.57606              55.96796
   AR                   59.73776              59.92619              38.70573
   AR                   79.49914               3.41974              44.58187
   AR                   87.08050              61.86352              41.35750
   AR                  114.97086               1.90039               4.29751
   AR                   50.81911               4.54984              11.37670
   AR                   58.41657              65.81188              23.16121
   AR                   74.15640              53.34848              40.86316
   AR                   83.85844              51.30178              35.31083
   AR                   80.23942              40.07253              41.15937
   AR                  111.37608              30.37832              24.50419
   AR                   96.50444               4.97823              33.52255
   AR                  100.83998              66.75141              28.69855
   AR                   94.69861              51.17465              52.25170
   AR                   70.03786              49.11603              63.27553
   AR                   94.02231              43.39467              21.40174
   AR                  114.94562              66.92573              35.68425
   AR                   53.81106              17.57226              16.01760
   AR                   70.12304              36.40003              12.35509
   AR                   87.62646              35.72423              17.57404
   AR                  102.93897              38.60987              54.40426
   AR                   79.38315              58.81288              58.89123
   AR                   86.63179              47.50944              65.71132
   AR                   74.98722              14.13118              31.37502
   AR                   93.00930              55.69718              35.89678
   AR                   51.37453              65.73399              19.38644
   AR                   93.91624              44.78568               6.84943
   AR                  114.62863              33.68558               5.05142
   AR                   83.62634              59.88371              47.53367
   AR                   73.63878              50.31639              62.38991
   AR                   82.19954              50.87804              29.51187
   AR                   92.21435              64.24119               6.84113
   AR                   65.16341              54.03610              63.71111
   AR                   70.21557              64.34401              66.69423
   AR                   70.52075              19.23976              49.15457
   AR                   56.38236              44.59651              44.24473
   AR                  110.01324              35.70007              10.72349
   AR                  104.05837              31.93466              62.92501
   AR                   78.16228               0.31952              23.58787
   AR                   81.06360              66.57011              43.74966
   AR                  107.85761              13.50590              52.55543
   AR                  104.06465              11.28413              22.02134
   AR                   86.95070              22.28039              54.29922
   AR                   95.21221              35.87792              41.30139
   AR                   70.05936              49.41340              30.99901
   AR                   61.71259              17.11316              46.46754
   AR                  113.67310              27.52903              59.79633
   AR                  115.98901              40.63437              38.14450
   AR                   58.48858              20.07884              50.82714
   AR                   69.29285              41.93055               7.74238
   AR                   67.38542              17.50103              63.18279
   AR                   84.89224              42.44864              66.65953
   AR                   84.36620              27.79173              31.89010
   AR                   93.20924              50.64588              34.56889
   AR                   99.23614              30.06588              46.73657
   AR                   66.43234              66.67427              59.18999
   AR                   58.41760              31.19384              11.93503
   AR                   68.29749              64.11231               3.49174
   AR                   62.33852              66.57642              59.79980
   AR                   88.61899               9.88697              23.53404
   AR                   56.30458               3.92537              41.86115
   AR                   69.07541              61.08877               5.90662
   AR                  104.01087              36.49766              11.90865
   AR                   80.63304              42.85750              60.18545
   AR                   87.06917              47.22087              12.50188
   AR                   79.93720              60.90756               9.28136
   AR                   67.15653              27.70905              54.62843
   AR                   79.25094               9.56771              35.13661
   AR                  105.28288               2.45998               2.35363
   AR                   57.89321              10.68183              15.56563
   AR                   61.78754              45.28490              18.24444
   AR                   90.54251               7.87762              43.38368
   AR                  115.92378               7.25058              15.04748
   AR                   83.85378              39.05868              36.86383
   AR                  113.21064              39.06790              66.34631
   AR                   76.07190              64.43165              14.09737
   AR                   57.72475              59.09531              63.90678
   AR                   71.13013              12.84257              48.33155
   AR                   75.28966               1.66780              64.68846
   AR                  113.74408              31.99103              47.80742
   AR                   92.82990              54.59744              21.47848
   AR                   87.56694              61.59875              59.38804
   AR                   84.34914              51.57582              52.60423
   AR                   55.49323              27.67372               0.41781
   AR                  100.80937               2.23231              38.51168
   AR                   67.36754              12.16461               7.40747
   AR                  107.89075              22.97781               9.64045
   AR                   58.54005              12.10501              27.54286
   AR                   77.05198              66.00352               2.70978
   AR                   97.51438               1.97884              63.70625
   AR                  105.59362               7.61097              12.08006
   AR                   75.24827              23.53210              59.10824
   AR                   12.71031              23.86719              14.99483 FRACTIONAL
