       266
            33.39420            67.54204
   AR                   66.33179              12.48773              64.75179
   AR                   51.84316              35.80602              47.42891
   AR                   95.91694              54.60206              27.50035
   AR                   91.68395              40.20970               3.25188
   AR                   54.26488               8.61371              28.75400
   AR                   13.81669              23.00017              13.54664
   AR                   91.89434              52.69773               1.99618
   AR                   20.59021              30.48256              29.63429
   AR                  111.34181              30.29100              14.21900
   AR                  102.59573              17.81791              30.25977
   AR                   99.84454              18.76566               0.45642
   AR                  115.24013              53.17987              47.82328
   AR                   88.50074               2.92934              43.18230
   AR                  101.32373              29.47239               1.54221
   AR                   99.42286              13.50984               6.29891
   AR                   80.85881              59.31152              57.41189
   AR                   70.17626              14.00802               3.09485
   AR                   58.73055              35.47812              23.48256
   AR                  103.65369               4.51386               2.71741
   AR                   13.02919              26.10133              29.42030
   AR                   65.88658              31.66189              50.13052
   AR                    8.70839               4.60645              12.62944
   AR                   73.35455              67.42057              40.64563
   AR                   87.92411              58.50025               5.15300
   AR                  106.89096              16.95870              56.83715
   AR                   77.42781              52.64689              53.47684
   AR                   67.94544              10.00391              49.25822
   AR                  112.94486              51.52393              50.26982
   AR                   53.02787              24.39670              50.29659
   AR                  114.90431              65.82935              60.14372
   AR                   62.91447              47.34161              46.16323
   AR                   98.23561              23.55346              39.84792
   AR                  117.03734              27.75211              39.04336
   AR                  113.44519               4.39521              62.72909
   AR                   66.79479              10.70699              17.78716
   AR                   95.26798              29.23704              44.73562
   AR                  116.34662               5.36383              26.52139
   AR                   70.62008               5.55501               9.52430
   AR                   75.57334              54.04231              47.87031
   AR                   66.83425              63.22889              39.20266
   AR                  102.10934              39.89587               3.89803
   AR                  111.34075              19.88657              17.43782
   AR                   57.25274              59.56219              20.64432
   AR                   53.03267              20.78142              63.81559
   AR                   64.50286              44.64159              36.18027
   AR                   90.29111              58.92294              56.72252
   AR                   66.82552              25.34800              13.80041
   AR                   67.06371              42.62610               0.67555
   AR                   99.68288              22.89808              25.51531
   AR                  105.01420               3.80256              35.78077
   AR                   99.50625               6.78491              55.71969
   AR                   88.65141              50.58755              15.20739
   AR                   71.50994              61.15119              32.70849
   AR                   72.82989              44.24845               2.20592
   AR                   69.11801              61.54403              60.69766
   AR                  100.78230              59.54878              62.60764
   AR                  103.87737               7.96839              53.28954
   AR                   83.41480              17.27293              51.87198
   AR                   15.80814              20.22571               8.08728
   AR                   93.68724              27.36918              31.36172
   AR                   17.40098              29.17813              26.03104
   AR                   87.87094              18.51992               4.62356
   AR                   22.34889              10.15286              15.86186
   AR                  114.08720              57.17403              11.67470
   AR                   59.93530              65.73450              52.99722
   AR                   17.68432              24.97756              26.74987
   AR                    3.21602              14.74128              19.96998
   AR                  114.57070              44.23930              18.44386
   AR                   73.76290              63.23310              38.10065
   AR                   66.15329              56.08945              34.36391
   AR                   62.75928              41.96147              42.45966
   AR                  112.63473              29.17564              25.87509
   AR                   59.43617              56.02197              36.21481
   AR                   54.54217              13.77215               9.58514
   AR                   71.11293              52.32275              19.57573
   AR                   61.23235              57.43476              27.06387
   AR                   77.70100              19.46433              45.32092
   AR                   76.38682              39.92195               3.75459
   AR                    2.91712              24.35002              26.74089
   AR                   63.86552              26.09614              31.22142
   AR                   84.21878              51.53582               4.73155
   AR                   26.93070              12.84000              24.11598
   AR                  107.55862              18.02312              17.17016
   AR                   63.99568              30.24652               0.58008
   AR                   72.47813              62.88931              13.64472
   AR                   68.92856              66.93271              61.17929
   AR                   86.14919              25.54321              36.39770
   AR                   76.33086              64.70803              13.34790
   AR                  113.25559              18.81442              21.27754
   AR                   60.87349               5.76952              39.34784
   AR                   98.62258              23.27636               8.17822
   AR                   67.26135              46.29429               4.19747
   AR                   56.93050              52.58620              30.91965
   AR                   27.34679              17.10742              12.13110
   AR                   57.64608              42.57158               5.45922
   AR                   94.22456              52.57103              24.96409
   AR                   77.63953              16.31852              16.90941
   AR                  109.41150              41.92617              58.56555
   AR                  101.31638              13.75857              10.70507
   AR                   53.33691              42.03478              30.32323
   AR                   66.83869              20.40630              14.49794
   AR                  107.97255              24.12180               6.65684
   AR                   10.45545               5.86909               4.79838
   AR                   78.00974              37.16151               0.05405
   AR                  112.26028              52.84279              14.26479
   AR                   71.56006              56.46681               8.62429
   AR                   93.99664              41.57486              57.48026
   AR                   30.97424               8.22426              32.47808 FRACTIONAL
   AR                   54.60778               0.92916               8.36749
   AR                    1.59446              31.30321               4.46999
   AR                  110.25554              44.52165              20.24732
   AR                    0.87446              26.85482              12.02493
   AR                   66.03960              58.47665               2.11666
   AR                   16.28279              31.51983              30.79490
   AR                  104.95184               8.27116              12.68353
   AR                  114.67428              52.40138              59.05943
   AR                   88.30223               2.96864               9.51743
   AR                   89.83866              11.76158              27.53140
   AR                  110.89153              59.57208              31.36335
   AR                  101.00859              19.43892              47.34111
   AR                   53.34385              56.75238              67.43201
   AR                  103.62401              58.64595              51.54232
   AR                   54.52976              31.68732              22.76632
   AR                   94.93635              41.26058              63.13171
   AR                  100.25536              35.94148              31.14301
   AR                  115.00334              61.69185              47.80440
   AR                  113.95169              26.25553              23.12137
   AR                   80.25974              57.13884              29.41640
   AR                   67.36826              35.02016              53.19314
   AR                   84.96101              25.40218              40.94299
   AR                  105.70648              11.60666              53.45617
   AR                   60.81305              64.75531              21.26093
   AR                   68.39554               0.38459              41.72398
   AR                  105.29273              24.91015              43.38758
   AR                  117.34349              40.04111              33.15136
   AR                   54.90475              16.18887              24.09193
   AR                   62.32462              22.47658              43.13007
   AR                   85.64533              32.26957              67.15953
   AR                   79.42521              33.58055              39.98053
   AR                   79.44743              66.81422              66.91820
   AR                   95.83340              38.77366              29.14656
   AR                   64.37155              66.36709              44.46936
   AR                   96.01958              59.87998              41.79868
   AR                   87.37295              11.75641               3.09690
   AR                  105.74565              49.89057              51.05125
   AR                   53.50783              24.42104              58.76775
   AR                  102.13243              59.53467               8.60874
   AR                   53.95631              13.74585              48.68597
   AR                   61.06623              52.79648              11.55642
   AR                  112.02335              39.89414               4.97003
   AR                   67.17267              22.13233              54.51580
   AR                   66.39051              41.65192              37.02468
   AR                   65.09017              15.43603              59.52280
   AR                   52.83981              11.56941              35.21679
   AR                  116.53129              47.42923              66.44133
   AR                  117.22379              52.54436              54.85965
   AR                  113.70758              33.08798              53.32381
   AR                   63.83637              42.18898               5.45421
   AR                  105.80508              28.23388              54.55345
   AR                   99.84743               7.87509              24.79061
   AR                  112.49141              47.56220              19.05282
   AR                   82.56112              26.02803              21.11779
   AR                   62.06182              51.22484               7.27027
   AR                   70.48783              67.38085              11.53407
   AR                  103.92315              22.81610              47.12318
   AR                   73.25933              16.39211              67.38734
   AR                   91.84707              35.91010              62.57577
   AR                   87.10574               6.15159              25.14906
   AR                   71.94733              39.62670              59.14683
   AR                   32.31931              28.96830               4.77043
   AR                   74.82663              20.48790              58.36662
   AR                   72.80613              12.27553               1.28194
   AR                   72.06238              15.54381              57.35336
   AR                   54.92777              18.53004              44.53690
   AR                  103.65408              35.79456              53.17273
   AR                   59.79576              41.29793              49.82437
   AR                   68.37810               2.49943              51.14865
   AR                   75.29737              34.27477              49.63556
   AR                   77.74998               3.63258               4.83279
   AR                  104.81950              22.90363              20.82219
   AR                  101.50897              37.41913              67.52376
   AR                   74.37894              12.74868              39.50221
   AR                   74.87238              49.77206               2.29338
   AR                   94.50269               9.53514              31.21561
   AR                   85.45489              17.53506              61.67265
   AR                   25.06454              17.30434              18.66749
   AR                   58.35084              62.30422              25.38837
   AR                   96.84654              47.51026               0.51072
   AR                   71.07710              34.89620              38.55580
   AR                  102.94713              52.88573               0.35999
   AR                   95.84419              24.42553              19.59506
   AR                  102.85469              52.73454              47.24114
   AR                   86.18662              28.76270              44.08615
   AR                   83.20338              28.53778              66.04272
   AR                   66.38442              67.19528              51.58712
   AR                  107.80798              12.74083              31.77247
   AR                   63.52966              21.68490              12.61923
   AR                   72.29322              59.07814              53.04089
   AR                  109.71302              41.16153              46.69182
   AR                   98.98627              37.40456              65.05021
   AR                   23.07552               3.55142               1.84330
   AR                   65.90071              30.92389              65.35368
   AR                   61.06879              55.22963              39.73461
   AR                   87.60111              67.46235              50.62031
   AR                  109.73708              58.34986              66.77740
   AR                    5.87026               1.41298               1.51205
   AR                   69.95277              49.68024              16.46400
   AR                   77.47308              46.85022               2.92045
   AR                   91.27788              62.46666              51.44599
   AR                  110.05276              38.04553               1.10590
   AR                   54.08597              32.87414              48.89371
   AR                   31.33283              28.46735              12.26145
   AR                   79.35083              42.46144              12.75698
   AR                   54.24174              41.12565              49.47806
   AR                   56.82597              32.07488              39.42055
   AR                   87.50912              30.91117              38.20674
   AR                   60.35898              21.52160              10.63562
   AR                   87.46681              32.54548              59.87191
   AR                   29.50246               3.14023              24.23922
   AR                   85.60162               3.84174              36.90142
   AR                   96.36206               0.90431              18.90046
   AR                   97.80493              35.19809              19.48525
   AR                   76.61529              34.53159               6.27056
   AR                   95.37197              47.59099              30.37789
   AR                   64.58733              33.42001              15.66091
   AR                  114.90610              59.71969              42.33797
   AR                   95.58302              13.06074              42.04153
   AR                   88.60534              50.08732              62.22876
   AR                   91.91936              30.59012              30.73123
   AR                   73.90647              51.40845              50.20015
   AR                   85.43218              34.03383              26.81954
   AR                   99.09935               9.16565              52.01997
   AR                    7.93109              22.75514               7.00156
   AR                   85.59738              25.46815               3.27864
   AR                   72.47155              53.76767              44.14340
   AR                   55.08813              37.39685              54.41325
   AR                   72.80213              44.60343              11.06609
   AR                   74.75007              49.86813              34.00433
   AR                   65.99795              24.12276              22.13525
   AR                   86.13568              27.68037               8.43327
   AR                   66.26306               8.48473              33.95934
   AR                   56.50549              22.87491              37.17248
   AR                   93.87021              47.49336              49.67910
   AR                   54.31579              57.32163              57.85142
   AR                   91.69438               9.24202              52.80035
   AR                   66.35279              23.90880              34.71026
   AR                   79.88867               1.59639               2.77814
   AR                   76.14582              33.01584              39.24041
   AR                   53.33953              31.55301              41.07237
   AR                   96.31161              25.58261               8.69330
   AR                   90.22507               3.64015              27.82956
   AR                   70.56094              23.56522              23.16532
   AR                  113.04722              44.69494               0.08461
   AR                   51.20488              16.86393              40.62254
   AR                   84.89703               4.13848              20.76622
   AR                   99.83241              22.63939              57.89788
   AR                   73.75500              49.95118              54.35487
   AR                    8.31706              19.49249               8.12363
   AR                   91.13900              45.54549              23.65713
   AR                   77.63447               1.50791              44.22293
   AR                   79.09857              65.28041              56.31567
   AR                   75.17778              12.78344              21.20827
   AR                   72.97911               3.34213              16.35967
   AR                    2.10160              24.59413              17.66888
   AR                   86.31944              12.45199              31.56489
   AR                   57.47018              63.24296              36.54173
