       266
            32.91378            68.99746
   AR                  110.39512              45.47789              22.24809
   AR                  102.03696              65.73197              67.68526
   AR                   74.88208              59.99745              49.77501
   AR                  102.24646              29.95776              35.51841
   AR                   26.12181               0.59510              13.04701
   AR                   21.64849               1.67058              14.81148
   AR                   27.30196               3.48344              18.33750
   AR                   96.34713              32.67574               3.13369
   AR                   86.87446              61.97527              61.04089
   AR                    0.69593              18.25399               9.82913
   AR                   85.93969              50.40427              13.13989
   AR                  107.73715              40.73509              32.47627
   AR                   60.86276              38.24983              56.69676
   AR                   68.15013               1.05852              34.34673
   AR                   68.96418               0.65801               5.16567
   AR                  105.07686              32.22003              61.35609
   AR                   74.13633               0.32920              47.16080
   AR                   71.20835              54.69687               1.54280
   AR                  115.96540               2.41324               3.59869
   AR                  102.86858              47.32329              18.65555
   AR                   81.16062              34.44935              13.52444
   AR                   62.22964              47.85321              58.15082
   AR                  107.29381              32.16746              25.92504
   AR                   57.47112              24.43491               3.47572
   AR                   57.26433              62.13924              60.12932
   AR                   97.87056              33.74088              12.14265
   AR                   86.73309              37.13273              48.34283
   AR                   54.41059              32.86835              59.16947
   AR                   84.59251              56.72487              21.48750
   AR                   16.17490              25.50888              29.99448 FRACTIONAL
   AR                   80.36051               2.28865              55.89339
   AR                   69.01710               6.11210               8.09549
   AR                   68.18922              22.96262              36.14597
   AR                   65.66282              43.41107              16.01120
   AR                    3.78981               3.27402              16.09808
   AR                   54.48054              63.78288              58.62502
   AR                  101.78912              65.00429              38.84418
   AR                  109.75862              22.32856              60.85010
   AR                   94.20802              62.50136              12.30426
   AR                   61.60323              16.65340              48.02005
   AR                  108.74378              58.19640              51.53457
   AR                  117.63861              50.22187              42.11441
   AR                    2.06732               1.49576              19.31368
   AR                   64.99618              42.35864               8.63728
   AR                  102.77280              62.86499              15.63867
   AR                   29.16976              15.14848              15.40964
   AR                   67.70934               7.10247               1.79701
   AR                   90.40672              40.03484              54.50800
   AR                   71.50815              27.87340              15.69680
   AR                  114.96552               6.80511              36.16109
   AR                   62.32934              62.39624              34.39472
   AR                   87.97293              40.56916              32.52791
   AR                   51.12936              55.45519              14.45084
   AR                  112.26677              57.69383              41.52536
   AR                   61.10841              33.05087               8.88306
   AR                   60.19627              51.60739              33.42084
   AR                   56.89846              43.92057              67.00809
   AR                   26.43808              18.29289               4.20510
   AR                   81.70673               2.25248              59.98935
   AR                    9.87983              23.33985              24.51261
   AR                  110.72316              32.03436              32.27708
   AR                  101.12372              15.13763              63.39886
   AR                  109.73978               1.76583              36.19082
   AR                   73.07998              56.90446              22.65085
   AR                  117.49761              46.08018              28.41578
   AR                   98.47641               8.83713              12.04752
   AR                  100.50779              46.13222              36.27696
   AR                   76.50521              38.80880              47.58262
   AR                    8.42357               6.20725              31.95175
   AR                  102.65546              10.43857              46.76449
   AR                   64.84961              53.85787              10.30483
   AR                   76.99641              12.52685              63.76791
   AR                   90.95969              28.90233              39.39154
   AR                   98.97758              36.59150              37.02572
   AR                   99.18453              60.08847              46.34879
   AR                   31.75257              28.11152               4.06255
   AR                   82.20876               0.41526              32.32550
   AR                  114.65833              46.95227              26.31722
   AR                  114.36696              65.03253               4.58863
   AR                   86.34402              56.96777              54.20269
   AR                  112.85340               8.70006              53.43981
   AR                  106.56120              41.81047              37.92111
   AR                   62.48168              50.97186              17.71752
   AR                   82.78887              53.26852              16.23557
   AR                   94.23286              67.21664              62.67541
   AR                   90.83785              38.58058              67.71483
   AR                   90.31220              68.84836              12.46717
   AR                   50.86716              55.07771              37.34005
   AR                   72.20305              18.54113               3.79909
   AR                   80.85455              51.18639              58.77260
   AR                  118.23279              44.48543              43.95220
   AR                   95.53304              45.45458              50.13943
   AR                    2.72502              18.82936               3.03029
   AR                   94.09536              58.76093              50.04291
   AR                   94.01550              44.26502              34.99009
   AR                  113.48042               0.65002              10.18577
   AR                  105.18692              65.04204              23.62206
   AR                   69.28944               3.94103              54.11274
   AR                  109.38454              67.67259              13.15769
   AR                  109.13378              35.29663              40.29504
   AR                   91.60118              18.73296              66.02342
   AR                   65.43934              66.77536              63.22902
   AR                   57.61319              15.83528              22.20611
   AR                  102.11168              15.51647              17.67131
   AR                   90.01891              36.80229              46.00033
   AR                  101.30835              22.09112              34.48123
   AR                   16.83565               8.78649              23.10520
   AR                   24.03849              30.76669              13.53703
   AR                   73.10641              10.31942               5.05523
   AR                   51.40493              60.42214              40.34614
   AR                   86.32210              19.03734              48.34350
   AR                  107.28354              10.47504              35.23035
   AR                   54.27266              51.92097               9.63356
   AR                   64.42656              58.92950              46.98238
   AR                   75.25271               4.73965              33.74883
   AR                  102.70679              50.38253              41.62124
   AR                   50.54559              25.68615              28.47940
   AR                   74.76840              45.50610              52.13582
   AR                   75.76220               4.17854              68.95323
   AR                   61.78183              10.07002              66.03058
   AR                   76.17151               1.14901              56.55522
   AR                   92.53362               3.94714               4.99004
   AR                   93.61951              32.41164              47.50689
   AR                   50.85374              21.65460              29.11190
   AR                   28.41565              26.60526              24.40305
   AR                  111.04354              27.90932              49.60336
   AR                  100.66043              39.87335              29.88228
   AR                   24.48766               8.79064              18.10301
   AR                  116.83097              37.21052              15.14144
   AR                  107.96012              31.20979              15.83824
   AR                  113.11170              57.54335              58.48456
   AR                   98.45456              48.46138              29.63997
   AR                  106.54618              16.86218              43.46067
   AR                   94.42209              64.25549              50.84670
   AR                   79.28393              67.24988              34.32502
   AR                   82.77929              62.45451              58.58219
   AR                   98.06000              62.67104              31.44208
   AR                   95.09025              67.96891              66.34344
   AR                  107.11589              44.80101               8.99386
   AR                  113.14917              30.28307              38.05290
   AR                   68.51876              46.27210              23.45021
   AR                  113.52047              63.45959              10.48639
   AR                   72.62902              52.10375              34.76671
   AR                    8.01388               4.73635              25.89469
   AR                  112.26680              11.18797              64.24991
   AR                   89.78418              35.28131              38.63308
   AR                   98.76781              30.37380              30.36723
   AR                  112.14509              49.30074              10.73442
   AR                  105.08850              17.64919               0.18365
   AR                   79.81855               0.41478              41.31416
   AR                   60.67150              46.45554               2.60744
   AR                   70.89602              20.22854              36.51949
   AR                   88.63436              62.93895              16.84354
   AR                   88.20079              29.63616              41.13959
   AR                   70.02645              17.03375              25.92087
   AR                   68.03451              67.21320              35.93609
   AR                    8.23315              14.57444               7.55243
   AR                   93.71868               1.34234              58.39449
   AR                   69.38940              37.05332              57.96950
   AR                   84.58402              65.11131              47.52676
   AR                   32.38457               4.77811              17.49831
   AR                  105.28602              33.32481              67.61531
   AR                   95.98688              14.05893              30.88449
   AR                   90.77636              30.30226              59.42986
   AR                  102.17069              26.03061              27.10971
   AR                  103.76537              62.99098              41.00490
   AR                   25.23806               0.87243              26.60547
   AR                   58.16549              59.39024              45.21048
   AR                   65.00473              21.92741              13.31974
   AR                   92.94628              49.16824              35.48248
   AR                   28.14314              12.44106              22.31390
   AR                  116.40114              35.10747              19.15694
   AR                   22.75970              32.23788               9.21432
   AR                   95.34650              35.04844              68.63330
   AR                  115.65618              16.89546              53.06616
   AR                   67.28244              41.17299              57.59129
   AR                   98.24601              38.87861              32.44874
   AR                  109.53039               0.13593              31.79982
   AR                   66.84174              48.75168              20.18789
   AR                   73.68470              37.32213              35.78743
   AR                  100.46300              18.90551              20.21066
   AR                   66.74421              50.94685              39.72394
   AR                    2.12057               8.70892              14.73430
   AR                   78.89411              39.97323              36.32464
   AR                  106.12359              58.43881              62.11380
   AR                   90.10925               6.71632              15.72384
   AR                   64.94555              33.72326              44.06292
   AR                   64.72625               9.07600              46.56510
   AR                   18.17736              29.85756              18.19141
   AR                   74.77431              16.65751              15.01312
   AR                  100.07144              29.65738              13.90712
   AR                   81.48206              40.02405              68.41340
   AR                  108.50294              16.72493              60.03111
   AR                   64.55929              24.04789              37.74732
   AR                   78.18065              35.36965              67.64213
   AR                   59.37163              28.33273              35.12700
   AR                   63.74030              46.84663              16.43076
   AR                   98.76005              31.25788              46.38451
   AR                   85.33293              42.54555              63.68813
   AR                   85.67838              22.32181              29.79035
   AR                  111.97959              22.48732              66.24342
   AR                   29.28973              18.07042              12.55468
   AR                   72.45439               3.48969              38.87391
   AR                   53.34611              14.86354              16.67874
   AR                   85.65168              45.84913              32.91373
   AR                   21.39940              12.87303              11.03943
   AR                   76.12119              23.71320              53.88311
   AR                   63.17255              19.24846              41.55922
   AR                   69.81472              50.17976              43.79200
   AR                   50.60596              34.70203              21.76522
   AR                   98.66359              61.47247              40.59598
   AR                  113.93623              35.30895              47.30060
   AR                   49.49626               8.63244              20.40488
   AR                   63.53784              66.42932              48.83940
   AR                  105.78471              35.74049              48.99687
   AR                  115.23716              33.97920              51.64789
   AR                   93.59267              61.79760              28.98329
   AR                   86.42652              45.29493              26.56404
   AR                    1.12492               4.09284              12.91400
   AR                    0.61298               0.88225              15.10204
   AR                   58.17508              26.76021              60.69960
   AR                  100.47343              23.20674              68.03798
   AR                   85.87095               8.70092              32.03585
   AR                  103.07027              62.90670               1.16163
   AR                   96.24341              41.59471              34.04813
   AR                  106.58689              62.83204              20.12264
   AR                   95.48452              50.85057              14.39717
   AR                   22.62511               2.66043              27.71730
   AR                  102.89544              68.02062              51.09341
   AR                  110.83846              42.27479              29.59803
   AR                   53.06168               5.82281              66.09614
   AR                   23.86922              18.41122              14.39978
   AR                    0.32550              21.94107               7.46664
   AR                   77.49431              20.54278              53.82914
   AR                   60.78813              60.27819               5.52791
   AR                   75.18346              21.14837              15.44439
   AR                   51.05651              42.78493              23.47494
   AR                   85.69821              53.58475              19.23282
   AR                  111.31066              55.59583              19.39231
   AR                   65.07136              21.62649              16.50820
   AR                   98.57895              58.23143              24.00510
   AR                  114.01785              50.75791              22.09071
   AR                   94.63086              61.28362               4.76861
   AR                   52.16157              35.13560              65.58556
   AR                  112.90845              34.51005               6.70691
   AR                  106.04282              40.52864              26.94523
   AR                   88.09548              41.54278              66.15666
   AR                  116.55078              58.32245              37.03876
   AR                   98.40109              16.34452               1.31079
   AR                  110.40404              63.21969              63.92018
   AR                  104.83684              53.91244              50.86164
   AR                   90.42971              51.99500              29.35064
   AR                   72.63304              47.57701              20.50700
   AR                   89.37422               4.03730              36.62845
   AR                  100.99560              58.24655              38.42161
   AR                    0.00331              28.17847               0.47040
   AR                   62.59531              41.82275              67.26064
   AR                   31.23322              14.10810              18.97785
   AR                   50.30722              17.22315              64.53132
   AR                   79.71803              41.26790              13.79395
   AR                   82.54478              65.46023              26.07443
   AR                  109.17448              30.26500              63.05768
   AR                   81.88328               5.34879              34.72622
   AR                   98.52740              42.85082              62.96716
   AR                   65.66920              59.50983              53.60075
   AR                   63.86046              56.13518              49.55953
