       266
            32.33247            68.42675
   AR                   93.92624              66.94381              24.55007
   AR                   62.64324              45.96040              52.02439
   AR                   74.86982               2.33758              15.81804
   AR                   54.84266               5.07368              29.79031
   AR                  100.78143              59.91101              44.06672
   AR                   78.44753              22.40908              31.02386
   AR                  100.54675              54.57347              49.90870
   AR                   84.04953              27.50765              14.85051
   AR                   77.09610              46.44911              54.52862
   AR                   64.99094               7.60046              57.83846
   AR                  108.01076              49.11825              26.70731
   AR                   93.71899              24.59431              32.26470
   AR                   76.35212              48.04921              16.33715
   AR                   64.63821              65.73719              19.90979
   AR                   21.34229               4.63603               7.87506
   AR                   92.99639              61.95189               5.02129
   AR                   65.08862              23.69965              29.54643
   AR                   52.59138               9.84901              21.73662
   AR                   77.16498              66.20662              15.97174
   AR                   58.01623              21.87831              18.48539
   AR                   84.43797              55.72027              22.91112
   AR                   59.96134              62.91903              25.77217
   AR                   99.05350               6.67301              30.55558
   AR                   90.46699              20.08456              35.12482 FRACTIONAL
   AR                  115.50967              46.20405              67.33114
   AR                   68.98213              19.42217              55.15343
   AR                   61.75482               2.67048              14.84712
   AR                   13.06435               7.74817              29.46290
   AR                   72.06046              29.21319               5.03788
   AR                   79.93222              65.59034              29.87418
   AR                   99.58008               2.55353              55.01112
   AR                   93.25274              60.37135              23.44663
   AR                   69.20850              38.34669              59.95041
   AR                   89.24674              20.64897              38.11324
   AR                  106.73390              15.82247              47.20136
   AR                   66.45761              12.89290              23.86441
   AR                  100.74670              31.81052               0.05386
   AR                    7.24181              14.61486               2.01232
   AR                   20.17215               5.32837              23.56716
   AR                   93.79594              24.98773               9.33598
   AR                   66.94886              35.14003               5.03918
   AR                   59.06083              30.87049              61.57454
   AR                  116.21297              54.47866              25.66444
   AR                   98.06807               5.42929              52.37040
   AR                  100.66704              57.66011              20.94788
   AR                   48.70983              26.57895              64.74831
   AR                   76.80520              20.41080              51.20258
   AR                   72.24141               8.96782              60.05762
   AR                  102.49023              35.65708               1.03035
   AR                  107.66297              19.83931               2.84285
   AR                   65.45187              30.48605              38.86871
   AR                  113.72464               0.05456              47.95767
   AR                  113.58482              42.84583              61.58285
   AR                   54.86616              33.61469              30.53589
   AR                   31.76042              27.47864               2.75583
   AR                   51.28779               6.53351              62.56319
   AR                   67.72479              23.46752              31.68253
   AR                   29.51933               3.94335              15.72706
   AR                   95.12913               9.82223              55.19009
   AR                   62.56544               4.73836              32.34325
   AR                  114.05164              33.66709               0.84282
   AR                   87.34141               4.66492              41.09042
   AR                   17.09381              23.59402              29.34158
   AR                   55.27687              51.48583              46.87885
   AR                  111.53377              21.53768              14.69041
   AR                   97.81207              18.36841              48.23435
   AR                   77.27516              49.14899               9.39006
   AR                   69.07308              65.98737              33.83214
   AR                   99.91883              50.74335              22.09134
   AR                  106.66648              51.70687              10.57206
   AR                  102.43411              26.79333              15.65549
   AR                   64.23846              36.71275              65.04837
   AR                   58.09648              58.61247              38.04023
   AR                  111.57206              42.54587              17.24986
   AR                   95.25172              11.57498              65.29296
   AR                   85.26876              28.65148               0.62694
   AR                   66.88794              11.07064              11.06334
   AR                   58.35797               4.34206              63.13065
   AR                   71.99109               4.49271              49.29881
   AR                   54.00795              66.31414              62.62023
   AR                   90.15565              29.55274              18.28695
   AR                   71.27392              40.01211               2.57884
   AR                  111.00544              31.98876               5.73326
   AR                  100.60007              40.16140              45.36614
   AR                   81.82444               4.85182              30.49521
   AR                   55.00036               2.25711              39.90129
   AR                   88.68140              58.14942               2.45907
   AR                   65.04212              28.41974              48.09303
   AR                   76.04766              39.39228               9.29324
   AR                   64.20640              46.08677              58.10110
   AR                   67.86869              43.90316              25.33296
   AR                   59.88617              30.56336              53.97045
   AR                    2.30083               7.87735              26.91963
   AR                   71.71279               0.59661              51.12585
   AR                   59.40282              49.60768              50.05014
   AR                   89.55048              66.59821              44.62233
   AR                  106.40499              47.30898              30.16091
   AR                   73.48072              55.86714              14.55156
   AR                   89.60640              65.61272              60.81213
   AR                   53.65548              18.51007              44.43007
   AR                   88.41734              34.82630              33.22172
   AR                   94.71811              57.00301              28.55429
   AR                   75.53680              66.32856              27.09009
   AR                   80.89109              62.43182              46.34457
   AR                   79.67112              57.16346              52.83314
   AR                   85.46300              53.39039              18.13760
   AR                  102.40729              59.77691              66.11257
   AR                   71.17887              39.49063              37.55662
   AR                  100.26121              56.76101              14.43828
   AR                  108.40920               1.16547               9.84213
   AR                   98.77402              49.95715              56.12390
   AR                    7.43451              24.06120              13.14102
   AR                   67.96773              25.23808              22.80245
   AR                  109.92054              48.18790               0.79392
   AR                   74.75340              39.14141              30.56395
   AR                   63.47434              16.57011              44.12038
   AR                  102.10232              29.72079              52.55183
   AR                   73.68021              23.91414              18.09599
   AR                   87.05890               8.21317              54.30812
   AR                   51.35994              46.67603              65.33255
   AR                  109.99631              30.48980              27.46700
   AR                   17.38996              23.17292              15.62428
   AR                   83.19515              19.39549               1.37376
   AR                   92.24109              29.89666              39.81112
   AR                   92.20008              29.23992              22.35714
   AR                   88.82967              42.80974              60.40182
   AR                   64.10695               6.07691              53.98763
   AR                  114.75200              67.30622               4.98810
   AR                   68.02524              45.78849               9.97573
   AR                  104.75331               8.44140              26.15683
   AR                   54.43680              35.81639              57.68072
   AR                  107.27830              51.61392              30.62346
   AR                  113.87959               6.18034              10.41482
   AR                   91.91019              36.11597              47.82001
   AR                  110.80084              42.90824               3.98699
   AR                   52.70914              42.73361              16.88931
   AR                   71.22478              20.03800              40.87583
   AR                   58.49663               2.75858              34.29750
   AR                  104.19885              61.36198              60.12816
   AR                   48.64679              52.12129              36.51625
   AR                   91.98138              45.30972               2.04462
   AR                   90.86726              46.54216              62.20781
   AR                   85.81578              43.62929              45.59547
   AR                   81.33683              32.82748              30.90752
   AR                  114.63428              26.41532               1.18940
   AR                  114.98397              34.84602              18.05684
   AR                  111.17554               1.72392              68.03321
   AR                  108.98918              27.00696              51.25353
   AR                   48.61100              53.62598               2.49751
   AR                   80.00088              53.15924              17.48267
   AR                   11.01627              25.84600              12.69460
   AR                   58.98256              59.46757              44.43507
   AR                  107.38452              62.66920              31.26735
   AR                   79.30427              66.48113              46.28154
   AR                   49.94443              59.90627              29.45340
   AR                  103.59186              27.65159              26.20446
   AR                  100.61886              31.79973              44.30741
   AR                   52.91434              59.26147              65.16120
   AR                   80.62969               0.62132              18.40906
   AR                   97.79445               5.65192              37.90799
   AR                   61.89129               8.66995              37.75152
   AR                   63.69965              16.75999              34.84696
   AR                   93.27783               6.67418              34.18946
   AR                   80.19851               9.07854              60.42892
   AR                   86.11273              53.18871              38.51584
   AR                   93.72876              39.18702              13.04317
   AR                    1.60690              11.76203               2.96584
   AR                   75.44618              15.01290              47.89005
   AR                   82.32968              43.72670              39.41005
   AR                   98.81605              18.61002               8.81351
   AR                  105.42031               1.43291              54.39529
   AR                  104.69132              25.77067              55.78783
   AR                   63.81585              25.18536              22.14115
   AR                  100.10933              33.95514              12.30520
   AR                  103.05406              40.37268              32.33211
   AR                   98.91447              49.35655              51.68060
   AR                   70.63321               0.41124              26.96574
   AR                  100.28995              47.37834              24.48749
   AR                  104.29855              31.19757              23.36883
   AR                   90.94811              23.02797              65.39301
   AR                   58.20774              51.93179              10.95212
   AR                  111.45139              52.76009              56.42984
   AR                   92.38896              19.31891              39.18792
   AR                   67.60810              20.98389               9.97533
   AR                  104.30408              45.40690              56.81617
   AR                    9.22188               8.26009               4.46768
   AR                   14.91529               2.53247              17.35338
   AR                   97.04984              50.39048              33.73424
   AR                  113.08057              63.44679              57.67355
   AR                   66.01380               8.45430              62.56303
   AR                   67.87206              53.39442              37.51377
   AR                   84.36838              44.57175              29.71507
   AR                  108.97120               9.71454              30.90641
   AR                  100.50962               5.75714              65.10692
   AR                   74.14431              48.44027              30.52433
   AR                   59.53071              39.02240              10.72441
   AR                   74.95027              22.69990              10.80419
   AR                   82.90196               2.77347              21.72011
   AR                   26.08587              27.36211              19.46733
   AR                   94.56138              28.43666              42.02360
   AR                   49.35139               1.77649              58.50770
   AR                   92.54997               5.43608               5.19354
   AR                   92.35117              65.80446               3.31316
   AR                  116.83315               5.30820              52.21360
   AR                  108.34614              10.36963              13.43133
   AR                   98.58903              26.66069              52.63375
   AR                    0.23519               4.67820               0.34712
   AR                   91.94271              31.80869              33.93634
   AR                  114.73627              22.06532              24.95052
   AR                   65.00165              39.91551              63.35264
   AR                   58.38705              30.10319              66.87334
   AR                  100.78472              30.21903              23.65904
   AR                   50.44284              38.79074               9.95643
   AR                   64.27159               6.79393              49.32311
   AR                  107.58461              58.28380              63.94007
   AR                   67.80728              14.49489              66.20524
   AR                   75.38846              38.27000              44.51610
   AR                   78.87182               8.39033               3.76053
   AR                   84.20234              14.24815              50.22136
   AR                   61.04475              52.47725              68.32601
   AR                   62.33239              20.91111              58.13472
   AR                  115.32975               4.56097              64.06222
   AR                  101.48868              63.39875              67.37118
   AR                   64.96158               1.48719              59.86567
   AR                  108.18363              45.37342               6.91068
   AR                  107.95859               6.26279               4.60530
   AR                   50.99340               6.99484              18.80698
   AR                   79.32347               6.52854               6.78225
   AR                   65.60870              66.78235              11.80290
   AR                   82.38298              41.20577              11.93193
   AR                   64.28908               8.19361              40.96158
   AR                   98.44494              23.96782              54.75473
   AR                   95.28866              40.23796              31.67688
   AR                  110.04816              21.74039              44.11011
   AR                   75.00687               4.55661              56.70804
   AR                  103.54003              31.00042               6.67989
   AR                   63.41265              48.13850              54.74037
   AR                   49.09312              23.81242              19.12851
   AR                   94.50844               3.00428              28.86864
   AR                   66.74979               8.48869              65.65463
   AR                   29.99179              32.06722              22.82798
   AR                  101.55540              37.43459              11.57724
   AR                   57.04049              60.92674               4.54769
   AR                   10.84735              15.70194               9.09231
   AR                   63.72949              49.55641              49.84877
   AR                   80.91238              66.36717              15.16372
   AR                  113.01286              57.26442              52.57808
   AR                   49.54884              41.87238              14.27428
   AR                    3.57520               6.11685              30.44885
   AR                   90.38701              36.81281              64.92197
   AR                   91.39670              62.37778              37.48829
   AR                   98.13189              35.29079              41.43129
   AR                   76.20941               7.40461              48.98892
   AR                   95.34220              56.35145              45.76295
   AR                   53.68128              29.02627              11.12792
   AR                   77.05544              58.39389              63.02464
   AR                   48.60761              23.40793              66.00297
   AR                   55.66715              28.44625              31.95668
   AR                  107.57218               6.22891              44.33769
   AR                   97.47280              51.51736              43.73885
   AR                   65.97208              58.01457               2.58477
   AR                   98.63792              65.94070              62.01487
   AR                  114.39766              16.62933              64.46916
   AR                   82.10106              60.23321              41.94635
   AR                   30.02275              28.34012              22.02411
   AR                   52.77031              54.40139               4.61015
