       356
            32.25262            55.99528
   AR                   50.17544              13.01917              48.78126
   AR                    5.37410              29.75171              24.69724
   AR                   89.86614              51.29186              49.33527
   AR                   79.78055              27.98450              50.52244
   AR                   84.13615               4.18344              12.32030
   AR                   90.13101              24.47456              26.24592
   AR                   52.60887              45.76613               0.11659
   AR                   62.33713              48.90309               1.85765
   AR                   66.98219              40.70096              55.48077
   AR                   85.28485               3.61254              41.55666
   AR                   54.35032              21.26398              42.00752
   AR                   66.70255              51.07462               2.44100
   AR                   80.50625              24.56954              45.90585
   AR                   65.31616              34.57521              20.71795
   AR                   70.48669              15.44500              14.14540
   AR                   17.91093               0.53418              19.55794
   AR                  103.79322              43.68584               0.69004
   AR                   67.75294              32.86400              27.44279
   AR                   52.00565              34.46699              47.08177
   AR                   62.18551              33.08153               4.14333
   AR                   59.36311              47.86854              29.42045
   AR                   88.45491              27.61938              51.59541
   AR                   92.92164              52.95981              23.65585
   AR                    3.91094               3.34051              24.09827
   AR                   57.00387               1.42347              38.62174
   AR                   54.56959              35.41395               7.44917
   AR                   70.47605              10.91757              49.54350
   AR                   75.73742              40.43141              30.15130
   AR                   95.73406              35.98979              23.17671
   AR                   70.63463              48.27021               1.05562
   AR                   54.66406              27.89578              43.05524
   AR                   21.02068               5.08252              10.10639
   AR                   52.73707              35.68477              23.02834
   AR                   72.72594              44.41003              46.54918
   AR                   85.64674              21.58005              18.19921
   AR                   76.89970              45.44923              32.73142
   AR                   59.65009              25.46417              14.81379
   AR                  102.33998              20.01418              49.87255
   AR                   85.47014              18.57511               8.75129
   AR                  101.55949              17.07841              29.80591
   AR                   95.38767               6.99853              41.87579
   AR                   57.66944               5.33238              16.55906
   AR                   73.68226              39.17347              36.27917
   AR                   80.73819              41.19055              25.94715
   AR                   64.61002               2.85161              53.28116
   AR                   52.03217              19.83787               8.25201
   AR                  102.67147              12.21482              47.95378
   AR                   96.07857              26.53996              15.05484
   AR                   73.30471              22.85617              22.05579
   AR                   69.58409              28.21274              16.72127
   AR                   21.44596              19.75154              29.39526
   AR                    8.60400               8.98216              16.11847
   AR                   56.41923               4.27890              10.02164
   AR                   57.18327              54.57833              12.86245
   AR                   58.77829              29.05938              52.19976
   AR                    4.18917              18.51974               1.63174
   AR                   72.98240              13.02304              55.93008
   AR                    5.89760              20.59544              29.50647
   AR                   97.30106              48.07445              21.05690
   AR                   89.37759              34.46003              52.64253
   AR                    9.67353              15.14123              13.99173
   AR                   88.17741              50.56301              34.63437
   AR                   32.16134              22.63115              15.60725
   AR                    7.59627              11.11936               5.25679
   AR                   67.51831              49.03437              47.09649
   AR                   56.71266              20.18220              37.11059
   AR                   67.98075              27.59867              37.39874
   AR                   88.47017               7.63051              44.85033
   AR                   88.63154              33.46392               8.34666
   AR                   68.23780              28.49764              12.42396
   AR                   13.04502               7.29784               2.27477
   AR                   65.09101              52.33840              33.05500
   AR                   53.65673              44.83907              49.06762
   AR                   72.01462              48.84106              27.58228
   AR                   32.11646               3.85383              22.38681
   AR                   56.72606               7.93319              35.28636
   AR                   77.03801              33.79886              31.96461
   AR                   48.99380              50.57351              20.05459
   AR                   82.27415              26.08302              19.48527
   AR                   92.20878              22.21539              42.98714
   AR                   88.13132              40.62345              25.40392
   AR                   66.62453              41.63670               3.47800
   AR                   71.09336              28.24844              47.13491
   AR                  102.79018              27.97259              44.62344
   AR                   48.62098              33.80694              39.53196
   AR                   79.28185              50.38311              14.44495
   AR                   59.24182               6.49163               1.28538
   AR                   55.82272              36.10355              37.48048
   AR                   26.75123               5.81586              30.97718
   AR                   61.35407              19.80676              36.22128
   AR                   94.32546              11.14066              30.75841
   AR                   61.36551               7.73283              44.27023
   AR                   85.30063              46.18076              25.46085
   AR                   59.65819               4.26428              43.34498
   AR                   78.80648              21.01164              10.99037
   AR                   56.40984              12.34827              55.58322
   AR                   89.09290              36.12298              41.49711
   AR                   90.72797              35.52441               4.33506
   AR                   60.47472              36.07344              33.32766
   AR                   29.14704               1.50944              20.51442
   AR                  102.02514              40.05980              30.23227
   AR                   85.70687               0.14593              18.56780
   AR                   64.78981              18.04159              52.51727
   AR                   83.95888              15.30060              12.00806
   AR                   75.84347              34.52837              45.55068
   AR                   89.81376              46.37127              13.84417
   AR                   78.59401              28.68132              44.31610
   AR                   82.58732              12.89372              53.65123
   AR                   71.47740               4.51705              53.44683
   AR                   76.24053              28.83170              52.76616
   AR                   81.67137              39.71290               4.23342
   AR                   87.13602               6.90973              38.07640
   AR                    1.12662              27.33720              16.25255
   AR                   49.25866               0.62767              31.70554
   AR                   61.19164               0.89484               5.10087
   AR                   67.65165              49.98944              54.57726
   AR                   72.26744              34.47814              11.84942
   AR                   92.17520              45.96211              42.98637
   AR                   83.59797              47.33578              53.98315
   AR                   94.67112              17.48774               5.17135
   AR                   67.68600              55.29494              31.84721
   AR                   66.94441              51.51861              19.27103
   AR                   67.67898              24.64641              21.13883
   AR                   57.60646              10.94053              10.16692
   AR                    0.87184               5.25384              18.96139
   AR                   98.83534              30.23714              52.00035
   AR                   65.95448               8.20620              39.68516
   AR                  101.11386               4.06823              35.75767
   AR                   23.11946              22.71009               0.94577
   AR                   54.26943               6.99787              45.13715
   AR                   91.35683              45.60574              46.63418
   AR                   59.42375               0.68862              50.09092
   AR                   62.05878              44.24012              26.40372
   AR                   99.45017               3.23976              33.08301
   AR                   59.11506               8.01121              53.77149
   AR                   66.45186              27.05928              15.16451
   AR                    5.62791              13.65451               8.37446
   AR                   14.59243              15.96877              28.53811
   AR                   99.01226              13.72329              44.74916
   AR                   60.62940               3.84448              53.17145
   AR                   71.69622              43.09510              50.09247
   AR                   72.26851              14.70391              35.75206
   AR                   73.21873              51.06808              55.94501
   AR                   77.40165              13.35530              53.74308
   AR                   83.93625              40.72890              49.29825
   AR                   79.81642              43.95689              31.82148
   AR                   89.04155              11.07844              13.56662
   AR                   63.91516               2.51957              13.80296
   AR                   14.95981              30.25348              13.64994
   AR                   51.04165              42.87297              10.41514
   AR                   11.97417              16.61878              20.89337
   AR                   84.74759              30.98606              26.76028
   AR                   50.75584              20.78136              29.38358
   AR                   97.79903              11.08673              38.17244
   AR                   80.20402               0.39926              30.29253
   AR                   56.59343              24.16723               4.02205
   AR                   82.10774               0.12065              21.97875
   AR                   14.20351               7.14583              17.87129
   AR                   71.15547              46.59065              24.64054
   AR                   56.30865              39.93373              45.83115
   AR                   71.30649              30.31521              51.01072
   AR                   50.33646               7.39852              33.56065
   AR                   53.91055              17.07183              17.50132
   AR                   58.48525              21.82946              34.25321
   AR                   49.63697              36.41295              11.71238
   AR                   79.84445              36.32016               8.49519
   AR                   57.33501              30.93124              40.12480
   AR                   22.51008              19.20897              19.41945
   AR                   91.15742              38.75640              21.66897
   AR                   87.50925              13.77768               2.43968
   AR                   67.01573              31.64281              10.87066
   AR                   17.99748              18.14317               3.09699
   AR                   88.66836              25.29553              18.28881
   AR                   59.69824              50.99094               4.53814
   AR                  100.19599              47.20283              54.62224
   AR                  101.46780               8.48123              25.17203
   AR                   51.71585              32.55744              38.04551
   AR                   61.78465              47.31943              37.37990
   AR                   91.13794              55.87335              20.08248
   AR                   84.74502              35.62509              53.25182
   AR                   62.55500              40.83499              27.41954
   AR                    3.49611              21.79822               0.02277
   AR                   73.86067               1.34071              31.45374
   AR                   67.08722               5.51574              43.18591
   AR                   78.17244              25.06743              48.75033
   AR                   93.74293              24.04141              22.95164
   AR                   66.66822              10.04118              52.88157
   AR                   88.69849               7.83266              18.64476
   AR                   97.61776              52.81870              40.55125
   AR                   62.85686              54.14002               3.03677
   AR                   68.24253              41.33760              24.99781
   AR                   70.66676              39.86693              13.93259
   AR                  103.30954              10.71425              40.31830
   AR                   86.57824              18.17357              26.28951
   AR                   65.21232              44.22933              13.65747
   AR                   53.17151               0.52117               2.89031
   AR                   99.29602               9.63706              21.31467
   AR                   89.78736              30.19465              19.85475
   AR                   55.44856               1.06571              20.74654
   AR                   15.26759               6.38782              10.60424
   AR                   69.32213              51.37837              38.50459
   AR                   78.17549              42.92093               8.73925
   AR                   66.92042              44.41230               4.64193
   AR                   58.79372              42.13610              26.59775
   AR                   54.32772              48.49932              15.82683
   AR                   52.29159              31.34285              52.63796
   AR                   28.66633              21.44632              28.37211
   AR                   73.86798              10.51448              47.26043
   AR                   71.61382              27.51033              34.91399
   AR                   54.54220               3.73120              38.09742
   AR                   67.02224              25.87618              52.82974
   AR                   87.03456              32.07381              28.99523
   AR                   66.33757              54.23012              49.74657
   AR                   77.85263              13.98824              29.73945
   AR                   98.52721              52.82260              35.49188
   AR                   68.75763              12.02638              26.90360
   AR                   94.98221               6.39699              47.33451
   AR                   17.14193              28.14759               3.70596
   AR                  102.47682              51.33680              32.53746
   AR                   14.49799               0.04519              17.79559
   AR                   57.38522              42.33852              48.48910
   AR                   29.30663               3.55879              17.28496
   AR                   68.11736              21.78139              13.47315
   AR                   55.56547              49.52733              12.24341
   AR                   55.74360              48.18665              29.85751
   AR                   84.64539              14.83463              39.99473
   AR                   70.90753              52.66805              31.60710
   AR                   59.82453              48.20613              22.71947
   AR                   76.08955              26.35551              36.51804
   AR                  101.12092               4.08562              11.04150
   AR                  104.10418              22.11422              26.65440
   AR                   66.01161              34.95248              28.98387
   AR                   52.23523              35.16607               4.99797
   AR                   80.43086              50.71297              49.88425
   AR                   67.76871              22.67097              18.13434
   AR                   70.61022              46.23662              13.17134
   AR                   90.56054              17.72850               0.57945
   AR                   79.37867              49.47911              42.81982
   AR                   60.37145              20.63089              41.82525
   AR                    3.05668              21.35333              26.14586
   AR                   75.10218              48.23364               6.51483
   AR                   16.56781               0.71337              12.52479
   AR                   82.56643               4.04721              23.37899
   AR                   62.45034              32.51264              19.47597
   AR                   72.71454              48.31778              16.87678
   AR                   90.20065              24.54649              38.24298
   AR                   88.96060              45.28054              30.83349
   AR                   49.76235              28.83583               5.37960
   AR                  102.21586              48.06632               7.84436
   AR                   82.93918              38.86235              24.84905
   AR                   84.49081               6.68119              33.52674
   AR                   83.33233              34.61249              37.43538
   AR                   98.37935              49.87551              29.73895
   AR                   98.75838              12.42790              53.24333
   AR                   91.79196              26.63118              20.97662
   AR                   99.73030              30.58585              38.62651
   AR                   68.70560              28.07082              44.28762
   AR                   52.74442              43.96749               5.98848
   AR                    1.55359               4.82913              25.72090 FRACTIONAL
   AR                   48.46870               5.40722              47.36058
   AR                   74.39729              35.32971               6.60102
   AR                   50.31781              28.32167              33.14071
   AR                   68.78563              51.36134              49.25932
   AR                   78.34994              52.39851              47.97132
   AR                   79.57022              18.84189               1.51833
   AR                   72.19688              17.35379              46.15393
   AR                    9.22137              29.72655              20.05372
   AR                   54.29198              11.52051              18.94058
   AR                    0.50800              11.50721              28.86611
   AR                   80.04200               2.66416              10.82240
   AR                   30.67616               7.45813              23.67042
   AR                    3.22878              26.06709              19.38591
   AR                   52.81547              52.31867              32.84713
   AR                  104.17233              33.18197              46.83244
   AR                   97.37431               4.61244              52.19838
   AR                   70.28270              48.40900               5.55819
   AR                  102.40074               3.55151              24.61700
   AR                   71.74268              30.81996              44.69560
   AR                   31.01863               9.23109              15.15528
   AR                   31.82546               7.19699              12.03183
   AR                   53.55539               6.69958              49.39819
   AR                   48.45551              51.00766              41.18546
   AR                   68.99761              41.17261               8.03421
   AR                   92.74820              27.08471              54.14990
   AR                   78.81506              23.94596              36.18412
   AR                   74.08934              23.23489               6.60038
   AR                   95.99320              45.44481              47.55382
   AR                   53.29207              41.56558              36.39729
   AR                  100.83923              10.69415              44.02184
   AR                  100.55133              45.82238              32.05100
   AR                   23.08089               5.37436              27.59673
   AR                   87.28763              26.68151              27.54265
   AR                   94.75830              13.56164              17.39435
   AR                   28.32981               4.04768              23.67928
   AR                   48.84147              23.63311              37.99659
   AR                  100.33132              36.46814              26.64825
   AR                   48.97147              18.97052              35.36265
   AR                   97.65977               9.39444              30.05423
   AR                   89.28138              19.16096              29.43325
   AR                   50.16428              29.51638              44.44796
   AR                   77.99325              15.40369              47.56827
   AR                   62.68565              30.02490              23.19567
   AR                   98.42293              44.09017              41.64603
   AR                   49.53071              29.63460              26.21768
   AR                   89.13162              52.98768              10.86168
   AR                   97.06861              28.05146               9.49111
   AR                   29.51898              13.07757              15.65519
   AR                   29.70771               3.68797              12.44225
   AR                   94.00743              42.76480               5.42954
   AR                    3.00211              31.18147              22.11941
   AR                   69.57739               1.85925              34.37922
   AR                   99.34752              20.98479              48.19463
   AR                   18.31216              16.39313              29.77974
   AR                   30.97375               1.56091              14.21644
   AR                   82.33906              53.95346               9.31269
   AR                   14.69988              13.85641              21.19918
   AR                   62.23736              32.07502              45.53185
   AR                   65.29062              46.71657              49.21785
   AR                   85.70527               4.24826              16.81775
   AR                   54.65200              46.78975              10.60339
   AR                   60.42005              13.21393              18.20824
   AR                   74.48001              26.55487              23.65935
   AR                   85.14161              40.14752              53.68057
   AR                   68.88536              33.51079              30.92511
   AR                   30.51692              29.35032              14.62939
   AR                   20.64556              15.99222               2.02316
   AR                   59.48276              10.88698              49.02244
   AR                   52.64824               7.62683               8.83924
   AR                   25.41196              20.63010               2.35484
   AR                   67.41426               5.34123              11.14587
   AR                   51.99985              25.26245               1.85375
   AR                   88.48133              16.33616              54.02266
   AR                   94.86841              47.95629              24.44058
   AR                   66.23832               3.62917              32.42987
   AR                   73.03870              19.45413              13.24030
   AR                   64.95280              47.60444              23.69178
   AR                   96.21667              52.56452              12.18690
   AR                  103.27063              17.30913              55.41748
   AR                   86.12527               0.69591              33.08142
   AR                   64.34517              51.80287              37.57151
   AR                   86.68991              25.10968              48.44098
   AR                   88.58611              39.89245              44.79869
   AR                   69.76381              53.93246              41.92976
   AR                   86.82017               9.39758              47.89816
   AR                  103.89975              35.37539               7.60030
   AR                   87.78862              35.58901              14.58772
   AR                    9.47049              21.24159              12.90379
   AR                   87.78670              53.23652              18.87654
   AR                   15.92589              30.89721              21.61409
   AR                   17.71922              30.74163              25.42251
   AR                   61.18728              33.28258              27.54383
   AR                   58.54289              51.24532              27.37557
   AR                   98.81963              35.58394              30.28186
   AR                   80.95448              44.35991              52.26711
   AR                   58.42680               6.23272               5.80807
   AR                   76.48444               4.88046              43.87034
