       206
            33.01245            72.55109
   AR                   60.41732              48.39804               5.35853
   AR                   67.30609              16.13992              55.37237
   AR                   84.86673               1.12116              57.59872
   AR                   54.81055              52.15621              35.60265
   AR                  109.80309              57.84551              38.65646
   AR                  109.74080              32.05213              36.87120
   AR                  121.14376              57.42787              64.06915
   AR                   88.83351               4.32700              21.80043
   AR                   63.72895              42.12228              17.48860
   AR                   62.91905              15.07674              14.64294
   AR                   71.48397              67.97277               9.61141
   AR                   97.67076              65.46281              50.16374
   AR                   22.67814              10.16997               3.69883
   AR                   51.40960              29.23376              71.65405
   AR                  111.35389              38.44185              54.16691
   AR                  117.21294              30.93561              67.69598
   AR                   86.00094               5.12679               2.30867
   AR                  106.35685              66.22400              29.42098
   AR                   14.52678              11.70659               9.65207
   AR                   82.57289              68.28476              60.75539
   AR                   95.72067              34.14182              65.70633
   AR                   29.70890               5.29983              32.03637
   AR                   55.39647              67.59150              10.26667
   AR                   52.03550              23.43747              34.32596
   AR                   58.80418              69.36453              10.76874
   AR                   62.86542              29.97202              60.89733
   AR                   67.96823              61.92982              24.85550
   AR                  104.26674              29.02238              59.30828
   AR                  112.74973              52.83664              15.55646
   AR                   94.90625              63.43889              10.93463
   AR                   64.71568              35.82216               3.45956
   AR                  110.96406               9.96029              12.44316
   AR                  114.78013              36.00600               3.75543
   AR                  121.76081              34.87608              29.32159
   AR                   52.69945              35.36425              10.99585
   AR                   10.19290              24.56236               3.19582
   AR                   31.89495              21.59430              24.28908
   AR                   30.78453              19.43411               8.57191
   AR                   50.19999              68.80097              38.92509
   AR                  100.32176              41.32884              17.12541
   AR                   83.24711              34.23233              11.88630
   AR                   94.15026               6.18997              52.16320
   AR                   54.42891              67.61213              68.93417
   AR                  118.79342              68.67592               2.75597
   AR                   76.63430              23.61561              54.75344
   AR                   97.90148              39.44672               5.43603
   AR                   62.29762              28.48189              71.33111
   AR                   54.18993              64.06279               8.42711
   AR                  115.83749              14.04151              71.85174
   AR                   63.59691              62.13246              29.22163
   AR                   66.04262              63.13037              16.57248
   AR                  115.83615              44.02848              35.03958
   AR                   69.14195              70.55210              31.99994
   AR                   91.18347              65.78976              47.34116
   AR                  105.31664              36.48286              37.28695
   AR                    1.01320              31.53935              17.00948
   AR                   16.63267              22.26802              12.53085
   AR                   88.84861               1.34501              56.93170
   AR                   97.53919              34.96409               3.34090
   AR                  102.21297              11.80430              71.38193
   AR                   84.63517              30.44615              34.26793
   AR                   82.23846               2.91038              64.78848
   AR                  115.34315              29.05949              52.47853
   AR                   72.31483              57.63008               8.06029
   AR                   86.57711               0.99732              69.16947
   AR                   50.60628              47.78635              26.70709
   AR                  121.93947              45.20103              15.62860
   AR                   84.76479              30.17286               3.10495
   AR                   55.92134              30.33101               3.26502
   AR                   71.07341               6.57926              53.50605
   AR                   68.46743              31.15521               5.11306
   AR                  110.25120              52.37729              45.86700
   AR                   75.10977              11.18062              36.18564
   AR                    6.38416              20.03235              12.84641
   AR                   51.16510              29.73211              66.03540
   AR                   73.40790              67.95919              47.25676
   AR                   88.28981              39.40661              17.47299
   AR                   87.97098              27.29939              33.59116
   AR                   79.61184              12.70722              58.65973
   AR                   62.61091              68.12531              36.02466
   AR                   70.19126               5.63118              57.72678
   AR                   76.98676              64.98335              66.46292
   AR                  114.95699              46.01420              28.25837
   AR                   51.29264              31.65799              26.57181
   AR                  103.35533              51.46882              38.22728
   AR                   96.46850               4.42932              63.38602
   AR                   82.39741              28.80057              57.91581
   AR                   91.55489              46.31716              63.28546
   AR                   88.69554              66.76225              16.80964
   AR                   93.81286              45.04648              11.58844
   AR                   88.09021              16.16092               6.38691
   AR                  109.41360              66.91480              27.89409
   AR                   98.25317              40.83493              49.96203
   AR                  116.15733               1.68439              25.70025
   AR                   96.43833              11.84633              64.73929
   AR                   19.49046               0.88930              17.76168
   AR                   66.64917               0.21147              39.97207
   AR                   53.57522              58.68030              67.03277 FRACTIONAL
   AR                   83.50487              65.18358               9.34691
   AR                  115.05658              15.17909              53.76076
   AR                   98.95066              47.71490               6.39524
   AR                   85.42064              62.10051              72.24518
   AR                   97.13237              13.15473              22.55269
   AR                   52.33060              19.19600              36.15738
   AR                   97.26591              28.19937              48.11476
   AR                   53.94869               5.45520              36.39512
   AR                   51.43285              25.41774              69.51864
   AR                   21.94451              26.70572              30.91258
   AR                   86.97784              22.53262              34.49399
   AR                   80.41457              19.47691              60.61855
   AR                   97.91067              50.82833               9.93911
   AR                   70.90324              64.35380              46.43985
   AR                   63.27451              46.23632              44.21882
   AR                  117.57096              38.80045              18.40407
   AR                   93.27263              16.86703              24.39565
   AR                   92.40945              47.69726               3.54348
   AR                  104.59696              63.68685               5.06262
   AR                    2.88748              28.04584               8.05295
   AR                  106.91002               2.67648              30.69474
   AR                   77.12886              17.80966              10.16108
   AR                   23.30663               7.37029               1.55792
   AR                   21.31231               2.34162              20.69668
   AR                   89.13696              56.64543              53.73720
   AR                  104.80237              10.21659              58.23677
   AR                   81.45374              45.68379              61.39629
   AR                   71.38808              59.27359              57.27681
   AR                   87.37842              45.39518               5.43517
   AR                  121.79085              67.21625              23.63991
   AR                  115.32963              32.13691              61.33474
   AR                   75.11195              61.60314              26.74043
   AR                   87.59006              49.60290              59.31913
   AR                  122.04025              56.60220              53.11399
   AR                  107.76965               6.18518              37.39782
   AR                   57.54207              66.64948              43.96853
   AR                  110.71613              62.44482              15.30947
   AR                   54.89939              57.07251              25.21442
   AR                   59.77855              31.07758               9.06848
   AR                  121.90206              56.10232              32.97980
   AR                   76.98109               5.37665              13.45153
   AR                   25.29882               9.53891              10.53928
   AR                  104.70552              63.48438              67.98564
   AR                   55.28469              23.33540              49.33170
   AR                  111.38269              64.93153              59.06526
   AR                   60.76483              35.03161               8.90327
   AR                   94.25173              27.55677              12.59691
   AR                  121.73791               6.26497               7.92677
   AR                   83.88961              51.68043               9.79605
   AR                  100.94639              39.92862               6.72259
   AR                   94.97260               4.48554              29.74217
   AR                   91.40349               4.79157              24.99112
   AR                  100.99516               8.50322              33.34207
   AR                  110.63536              10.57007              19.11344
   AR                   84.47385              52.75491               2.35935
   AR                   61.63280              41.67023              27.04804
   AR                  105.39889              22.56716              66.92046
   AR                  108.33530              51.86518              32.49653
   AR                   78.81922              12.40923               5.15930
   AR                   83.28431               9.82118              47.96323
   AR                   59.56668               6.34985              61.87983
   AR                   74.24388              34.03952               8.36079
   AR                   63.44239              35.18745              63.54492
   AR                   88.73699              17.27741              69.86070
   AR                  106.17226              10.67569               0.60504
   AR                  108.77710              16.81168              26.44770
   AR                   69.55445              30.08555              30.32317
   AR                  117.60201              21.84476              35.55178
   AR                  119.15793              14.94475              28.37173
   AR                   68.61131              60.92885              37.29409
   AR                  116.40059              57.97846              60.07037
   AR                  110.01811              26.86742              39.59738
   AR                   86.20694              59.39176              48.07768
   AR                  113.25353              15.17147              33.12914
   AR                   80.02351              14.56288              54.91424
   AR                  104.03388              71.47185              66.65549
   AR                   98.23486              68.54174              13.60133
   AR                   61.30917              18.11933              60.25589
   AR                   99.61929              28.75537              58.87876
   AR                  107.11357               9.50085              38.50274
   AR                   50.64253              52.97187              58.06430
   AR                   52.39556              18.64129              56.64033
   AR                   75.81154              56.49420               4.20019
   AR                   62.89328              36.47998              32.94862
   AR                   67.09698              10.83518              70.92549
   AR                  117.52292              62.93134              69.67784
   AR                  110.16376              36.78369              58.19693
   AR                   64.53965               3.77271              62.28425
   AR                   65.32434              23.19636              11.33281
   AR                   49.79613              62.66298              10.44855
   AR                  115.67705              43.79534              14.16039
   AR                   56.85382              33.15396               6.29692
   AR                   80.15427               5.66432               9.16708
   AR                    6.71158              26.93826               3.07394
   AR                   62.41987              32.82069              27.72998
   AR                  112.55707              62.07833              37.06923
   AR                   55.22001              30.48545              26.63982
   AR                   91.52719              70.74257              59.53486
   AR                   54.84768              48.33334              26.85623
   AR                   87.15816              27.52991              64.69925
   AR                  119.59212              17.54197              31.86664
   AR                   93.83044              35.90394              41.40615
   AR                   50.26435               5.35889              71.52816
   AR                   75.72286              44.71022              40.80319
   AR                   97.90320              16.45340              67.31138
   AR                   61.20001              12.55207              40.42522
   AR                   26.26719               2.54224              10.09913
   AR                   55.61613              30.05881              16.86009
