       266
            33.14052            67.20707
   AR                   79.26674              20.56340              23.92027
   AR                   86.09993              60.50076              62.31242
   AR                   80.33732              65.19055              50.16960
   AR                   87.85256              62.50906              54.65426
   AR                   98.79799              17.01853              59.97663
   AR                  103.92466              45.10582              61.09989
   AR                   61.81321              26.21102               4.10811
   AR                  110.33376              64.81066              65.45052
   AR                   79.03850               0.64164              18.10969
   AR                   62.02174              57.44617              32.95023
   AR                    2.86437               8.14804               3.04913
   AR                    8.37547              28.76185              10.43556
   AR                  100.39045              16.27937              46.80374
   AR                   54.49110              21.90716              31.51438
   AR                   73.10321              59.64915              42.08803
   AR                   98.25288              20.36006              31.39422
   AR                   90.83049              24.23358              60.99835
   AR                   15.75974              25.76425              26.04881
   AR                   91.56895              62.64937              38.08412
   AR                   55.41015              23.54268              16.24419
   AR                   29.24124              15.97537               1.00043
   AR                   86.33159              37.28596              48.94573
   AR                   73.12468              26.71409               4.43478
   AR                   91.31311              40.93395              32.53170
   AR                   97.76147              49.34554              30.13399
   AR                   29.52605              14.02669               8.49575
   AR                   74.40250               5.06136              22.71612
   AR                   79.78265              31.12717               5.15842
   AR                   61.54890              22.85838              57.71188
   AR                  116.43431              47.85029              22.06866
   AR                   72.07406              57.59981               9.00757
   AR                   56.11690              29.00589              40.18435
   AR                   85.18914              31.40134              48.06923
   AR                   13.44417              30.84020               0.61364
   AR                    6.22485              30.98232              32.47057
   AR                  101.70169              40.28645               7.85799
   AR                   97.77123              57.69649              54.75476
   AR                   80.50443              43.05920              33.74307
   AR                    3.49356              23.04846               2.02312
   AR                    7.35577              25.50110              18.65274
   AR                   60.84410              62.91809              16.54257
   AR                   67.09521              18.89193               4.97889
   AR                    4.09503              29.77417              15.51461
   AR                   24.85966               2.15502              14.03941
   AR                   52.91682              44.19324               8.46159
   AR                  111.24536              22.61554               3.45292
   AR                   53.65868              33.84747              40.85858
   AR                   68.17310              35.09263              52.96788
   AR                   60.87170              30.21013              23.85541
   AR                   85.49625               6.02352              35.54774
   AR                   73.42221              55.74166              13.64265
   AR                   58.71429              52.49117              12.26651
   AR                   53.88263              33.44616               6.61876
   AR                  111.83240              44.10654              65.00359
   AR                   79.02980               3.02043              37.27427
   AR                   79.61973              37.52301               0.94660
   AR                   74.18425               5.11155              17.75727
   AR                   78.42862              17.43238               1.54063
   AR                   93.85554              60.74763              28.68961
   AR                   73.77136              15.31168              26.95291
   AR                  108.26516              16.90496              25.89910
   AR                   72.06220              13.56020              46.84486
   AR                   98.03312              24.22221              36.49803
   AR                   81.44236              17.08162              22.23419
   AR                   98.26376              12.14033              42.10086
   AR                   72.95502              12.93642              60.26776
   AR                  100.17365               8.75438              22.88525
   AR                   96.18025              10.32650              27.55488
   AR                   60.57691               4.73506              64.23672
   AR                  102.77757              52.13377              12.62152
   AR                   84.67274              65.29451              41.13000
   AR                  105.28799               7.59961              57.24363
   AR                   89.44254              16.57965              62.03352
   AR                   53.12330              45.51027               1.04623
   AR                  100.38134               2.64570              11.27321
   AR                   78.36058              40.18747              29.03919
   AR                   55.74482              64.48615              60.47386
   AR                   50.57457              26.67998               8.33721
   AR                   79.92104              35.50536              28.02934
   AR                   62.27158              47.43722              66.14687
   AR                   78.66473              28.14262              21.29228
   AR                  100.01680              65.58643              55.95600
   AR                   83.91552               1.87113               8.15529
   AR                  116.07270              33.13789              54.45203
   AR                  104.35622              26.85802              63.22796
   AR                   55.44973              43.36472               2.85592
   AR                  103.72490              16.26545              14.77901
   AR                   72.35594              45.22181               1.22586
   AR                   89.10115              12.36701              39.60231
   AR                   20.12441              17.89119              12.10302
   AR                   94.08036              65.49859              45.47771
   AR                   16.06069              27.71376              14.99541
   AR                  106.57055              66.90397              45.67806
   AR                  112.72090              53.58593              36.81700
   AR                   55.39182              66.35448               7.68424
   AR                   64.95512              41.17260              17.91943
   AR                   75.56279               8.06679              47.72810
   AR                   61.18902              21.76244              22.19576
   AR                  105.11367              44.06583              37.91138
   AR                   72.18636              42.43807              59.51401
   AR                  104.29712              52.28086              20.65875
   AR                   98.01628              13.25756              11.75190
   AR                   90.43407               8.65263              52.68255
   AR                   25.85552              21.14966              10.23737
   AR                  108.95161               7.22742              56.93338
   AR                   13.25179               0.93214              22.08584
   AR                  100.45477              54.50076              42.16726
   AR                   58.49589               1.69234               9.02233
   AR                  102.55650              24.41019              43.05608
   AR                   66.66615              25.47988              63.85684
   AR                   99.62860              65.79977              20.34797
   AR                   15.72226              30.21127              23.87802
   AR                   53.43407              17.99514              48.39715
   AR                   93.32233              44.01007              27.32502
   AR                  101.91493              17.55670              20.54740
   AR                   77.90708              47.21212              29.15070
   AR                  103.53511              26.81050              55.54096
   AR                  113.24539              19.47356              57.54312
   AR                  109.43735              45.70111              60.61999
   AR                   64.42280               1.56108               0.99224
   AR                  102.80171              23.55492              36.52435
   AR                   91.58673              58.14312              41.48941
   AR                   95.24301              65.83414              17.95959
   AR                   68.32812              46.75731              45.42428
   AR                   66.07549              23.43857              47.70935
   AR                  107.69940              50.50468              24.05902
   AR                   21.23298              16.94237               2.96367
   AR                  102.12225              45.67423              32.63269
   AR                   10.58182               7.30958              27.67761
   AR                   77.39614              10.82606               0.67380
   AR                   29.60041              22.38060              26.04728
   AR                   83.57079              51.46364              13.13144
   AR                   69.11887              34.06928              34.59083
   AR                   11.84330               4.87134               5.43227
   AR                   81.06903              59.88347              25.55830
   AR                   73.23485              34.25854              54.68950
   AR                   83.57782              59.77017               1.50793
   AR                   75.06455               3.66973              33.93984
   AR                   62.34191              12.19551              11.44447
   AR                   91.27598              60.11137               8.05698
   AR                   77.73773              47.68406              53.71729
   AR                  106.99419              62.92530              43.18160
   AR                   96.28914              50.49201              51.32049
   AR                   59.06435               3.93271              14.96600
   AR                   54.60784              49.80770              23.03838
   AR                   89.77872               7.85443              25.82187
   AR                   79.99682              48.53321              39.14688
   AR                   81.53099              20.58982              19.76434
   AR                   61.69775              55.01087              25.87796
   AR                  111.89332              47.93282               3.79603
   AR                   91.43065              47.59084              61.99693
   AR                  115.50323              27.04476               3.83938
   AR                   65.89958              43.08452              47.40141
   AR                   12.17679              24.30286              31.32746
   AR                   52.36969              54.82574              47.10169
   AR                   88.81385              56.15891              23.59503
   AR                   55.86496              21.69462              44.28663
   AR                  115.74785              12.69042              22.91366
   AR                   52.78346              40.34957              57.62585
   AR                   61.99192              18.91377               4.61186
   AR                   14.97005               0.52162              18.96672
   AR                   64.46923              36.13956              38.27183
   AR                   54.82746              34.90496              26.72925
   AR                   61.49970              26.01818              51.06519
   AR                  109.80456              35.95530              17.34267
   AR                  109.86513              54.17949              23.99037
   AR                   57.80987              57.76661              20.96712
   AR                   60.58778              28.61301              45.87283
   AR                   91.80727              47.40847              10.30203
   AR                   31.39439               4.58741              12.45429
   AR                   94.19129              56.00175               4.85765
   AR                   56.95813              40.88423              41.20791
   AR                   72.63850              34.29590               9.26263
   AR                   57.34580              16.80754              63.51345
   AR                   95.46412              39.46745              51.30331
   AR                  103.80083              58.72074              40.43769
   AR                   91.83478              11.61977              43.61772
   AR                   81.48924              22.62439              39.34385
   AR                  113.60484               0.82604              12.64226
   AR                    9.44167               7.53698               0.71179
   AR                   64.96158              64.19065              20.86624
   AR                   90.27510              30.99427              42.79575
   AR                   51.85362              24.20323              53.69463
   AR                   92.28787              63.72509              55.43133
   AR                   70.28056              34.01636              21.75446
   AR                   56.65155              25.97501              54.20009
   AR                  113.94807               9.60887              55.80106
   AR                  106.13811              14.38226              54.79107
   AR                  114.59833              23.90954              48.94238 FRACTIONAL
   AR                   66.69299              14.38480              11.24986
   AR                   87.16585               8.13414              29.79600
   AR                   58.53629              11.68212              54.09297
   AR                   75.02159              22.61920              26.82429
   AR                   67.73504              50.05181              50.36003
   AR                   22.40403              12.15599               1.15488
   AR                   79.67452               3.10049              41.53317
   AR                   54.95083              26.25230               0.26747
   AR                   81.93803              24.37642              32.86925
   AR                   63.29669              27.17261              63.71037
   AR                   98.19942              12.52389               8.32906
   AR                   77.28688              24.80256              33.33004
   AR                   96.59742               8.35882              45.25842
   AR                   64.32245              26.93820              57.00323
   AR                   97.47306              57.87144               4.55987
   AR                  104.24221               5.28643              24.20527
   AR                  107.27632              25.12440              14.18558
   AR                    6.92715              10.91126              21.95153
   AR                  109.92686              46.27542              29.10719
   AR                   63.85364              45.00275              10.14911
   AR                   80.91779              59.98123              44.19299
   AR                   53.32907              59.30516               4.63614
   AR                   91.65171              61.67583              18.61048
   AR                  115.93567              42.05170               9.69397
   AR                   82.72005              45.42115              18.42539
   AR                   75.66337              57.11572              21.68934
   AR                   91.77978               2.93569              38.94745
   AR                   77.23703              34.06376              66.31984
   AR                   67.59017              22.21384              65.86365
   AR                   64.29916              58.22216              45.95011
   AR                   52.60803              52.32917              16.98827
   AR                    6.72605              27.42926              15.08828
   AR                   25.30892              32.05558              28.03560
   AR                   82.15171              66.78168              33.39886
   AR                   20.00600              20.49206              32.61427
   AR                   96.04006              10.50824              48.35358
   AR                   70.26468              56.04561              27.49638
   AR                   86.86205              47.30802              50.25364
   AR                   51.98930              37.77033              27.51139
   AR                   28.29412              13.20646              21.45294
   AR                   94.17785              61.00306              41.82801
   AR                   69.28239              26.55591              49.12385
   AR                  101.44251              35.08239              21.65932
   AR                   71.40057              62.72205              20.09471
   AR                   12.85191              17.74541              15.05939
   AR                   78.99787              62.73933              22.31474
   AR                   62.30855              61.29686              20.42190
   AR                   79.11405              53.20124              46.70608
   AR                  115.49328              11.25403              65.48587
   AR                   57.35765              27.20204              46.13302
   AR                   95.65067              10.76628              11.95073
   AR                   81.90817              34.71595              48.11498
   AR                   83.14947              42.25397              11.61864
   AR                   10.18682              27.72798              20.57656
   AR                  115.10510              19.81560              50.78932
   AR                   78.67473               2.97258               3.11562
   AR                   51.99762              44.29153              25.81060
   AR                  106.23263              57.40936              64.09943
   AR                   66.57265              38.72549              66.50544
   AR                   90.23781              52.64307               7.23047
   AR                   83.40728              60.97917              13.64772
   AR                   72.93472              41.09684              26.84303
   AR                   95.64479              28.01111              54.06290
   AR                  100.29890              59.77493              61.86535
   AR                  108.26982              62.64305              30.84558
   AR                  106.05568              39.97729               9.46320
   AR                  101.45880              51.95287              32.55681
   AR                   32.90177              12.89241              11.49196
   AR                   56.53922              25.18201               8.68808
   AR                   65.39681               1.69428              30.24966
   AR                   54.10956              27.15153              38.13777
   AR                   95.55394              56.35927              64.22440
   AR                   54.99633              50.92522              37.67283
   AR                   90.52614              59.58345              56.35844
   AR                   87.55212              22.37910              14.38296
   AR                  107.48157              35.06970               3.12824
   AR                   86.60068               0.60281              61.92730
