       301
            32.99473            63.47223
   AR                   93.07406              45.02693               3.43547
   AR                   57.56852              32.58234               7.61104
   AR                   75.74794              16.42440               7.84924
   AR                   49.55585              52.30633              47.13866
   AR                   95.84493              58.01450              30.51367
   AR                  106.80912              50.94934              39.13391
   AR                   64.70552              29.85792              56.18870
   AR                  101.45473              19.90952               4.09564
   AR                   84.86346              40.57873              49.22843
   AR                   15.21992              25.77623              32.71094
   AR                   84.44749               2.67525               0.66336
   AR                  101.94578              53.62139              12.33566
   AR                   89.24346               6.13907              32.24153
   AR                   76.80146              10.10563              52.63265 FRACTIONAL
   AR                   83.51392              25.23011              28.48299
   AR                   90.67403              45.31361              48.56192
   AR                   98.02795              37.63935              12.63301
   AR                   83.50916              12.32233              32.07938
   AR                    8.91330               0.54529              15.90797
   AR                   56.15638              25.99681              36.22177
   AR                   67.68988              58.05068              46.34456
   AR                   72.41119               3.20013              39.36585
   AR                   76.63698              54.44495              24.24494
   AR                   70.82088              57.94288              24.51301
   AR                   98.31645              14.65008               7.53476
   AR                   94.33719               6.08389              11.40100
   AR                   23.12240               4.07312              16.08089
   AR                   85.52884              22.55752              39.70791
   AR                   72.44739              50.88049              24.39928
   AR                   99.00327              10.17243              57.74903
   AR                  110.79916               5.06119              42.69770
   AR                  105.18498              25.27234              28.45283
   AR                    6.49399              32.55945               3.39482
   AR                   59.73337              47.21564              28.52576
   AR                   91.38169              39.38698              44.82566
   AR                   23.15961              23.58834              29.49706
   AR                   98.91897              33.25882              12.57837
   AR                  102.87376              63.38157              59.54299
   AR                   62.60502              54.21837              49.32778
   AR                   93.29212              17.13943              62.71080
   AR                   11.53131              26.61377               3.30495
   AR                  111.25546              36.95402              38.75138
   AR                   97.66994              37.71392              55.41297
   AR                   74.53903              55.18369              15.17188
   AR                  112.67820              22.34533              24.49460
   AR                   19.42463              27.39853              14.68304
   AR                   97.11233              24.69618              56.25176
   AR                   73.89681               8.52679              18.70878
   AR                   63.25280              36.60866              21.92249
   AR                   54.69001              46.70830              34.21021
   AR                   59.34400              41.90296              36.04393
   AR                   62.31638               9.85351              44.01840
   AR                   66.38310              16.67939              11.10372
   AR                   60.34062              60.64814              57.19537
   AR                   94.41490              50.72773              48.13230
   AR                   54.42673              61.93275              42.97579
   AR                   74.86503              49.20919              13.10666
   AR                   83.71617              60.25925              62.60971
   AR                   94.92260               6.74861               3.40729
   AR                   51.06853              35.16365              49.62712
   AR                  109.63315              37.68907              19.02889
   AR                   71.62642              16.64983              18.00957
   AR                   55.39088              55.72361              46.44549
   AR                  102.53644               8.68294               3.82756
   AR                  101.85007              61.91148               4.79083
   AR                   73.39956              32.30314              56.24610
   AR                   88.26895              18.21226              55.90898
   AR                   18.96136              21.13287              24.86756
   AR                   88.38032              31.16500               4.15763
   AR                   90.69329              36.14196               2.40575
   AR                  110.53093              40.70063              37.45702
   AR                   69.63816               4.65151              33.72515
   AR                  102.48442              52.14399              32.89356
   AR                   86.07299              51.12180               5.86550
   AR                   62.18713              28.43627              63.12107
   AR                   26.08989              11.40091              25.34139
   AR                   85.03469              22.52538              24.31377
   AR                   50.83368              12.50820              12.89895
   AR                   94.98202              23.13616              35.49365
   AR                  104.85670              32.33863              18.81955
   AR                   96.71047              14.22798               1.81060
   AR                   75.61456              45.16864              30.17177
   AR                   89.11545              21.00849              37.74343
   AR                   94.43104              42.46067               5.72457
   AR                    6.74516              23.18576              18.18649
   AR                   30.63375              25.37200              21.34988
   AR                   87.19599              45.27667              32.12571
   AR                   62.30787              36.17033              30.74248
   AR                  100.18878              21.79059              53.93152
   AR                   64.56916              44.41384              45.55135
   AR                   93.33136              38.88942              51.84174
   AR                   64.63242              59.79450               9.36032
   AR                   70.73213               3.88504              29.66950
   AR                  110.02428              60.61053              44.15756
   AR                   92.74394              62.39965              55.98660
   AR                   71.81580              58.26634              47.67916
   AR                   73.82366              39.96273              47.27549
   AR                   11.38129               0.61736              22.16429
   AR                   94.53147              35.69905              23.17537
   AR                   73.36173              16.35015              22.20141
   AR                   70.10958              11.87128              10.98242
   AR                   73.52600               5.49024              59.78173
   AR                   73.46049              29.93749              38.83919
   AR                  104.36612               7.41287              62.32067
   AR                   85.95085              36.07856               4.24897
   AR                   81.30410              34.26552              44.13680
   AR                  107.69885              52.44770              14.45262
   AR                   51.78607              43.04924               1.68328
   AR                   80.57796              51.57227              33.40960
   AR                   65.37215              41.87257              26.68322
   AR                   50.33016               5.48996              11.32935
   AR                   60.98593              54.68732               8.74477
   AR                   95.23585              55.07707              36.01666
   AR                   53.69679              61.04229              19.94154
   AR                  102.94685              32.33862               7.04978
   AR                   52.61691              24.60299              51.01670
   AR                   81.52847              48.72874              37.76792
   AR                   11.05093              28.32810               6.52471
   AR                   65.39459              41.28269              38.53220
   AR                   65.69297              59.20609              50.07299
   AR                  103.48820              48.05965              11.04055
   AR                   66.42341               4.18398              26.26617
   AR                   83.42874              52.40874              16.14099
   AR                   53.84863              14.26819              21.34076
   AR                   52.24950              24.44574              19.03101
   AR                   62.00874              36.32293              16.99992
   AR                   86.00326              27.72621              20.35865
   AR                   58.98690              29.60208               4.58127
   AR                   15.70784              13.08914               8.87697
   AR                   49.56125              48.94596              52.23464
   AR                   59.78372              12.25961              34.23049
   AR                   80.89887              39.68090              20.54584
   AR                   77.24601              33.10288              59.76986
   AR                   57.44238              60.72893              45.73683
   AR                   75.06755              26.91556              33.80618
   AR                   29.40550              21.45850              12.67762
   AR                   74.53599              33.03307               7.38740
   AR                   15.81746              16.37407              11.81652
   AR                   57.41564              20.16396               3.94001
   AR                   52.78754              59.85619              36.63437
   AR                   63.57174               8.22213              60.07328
   AR                   66.27411               6.01901               9.63210
   AR                  104.98260              48.69900              16.44652
   AR                   64.15156              41.70992              54.48463
   AR                   65.87735               5.13420              35.50573
   AR                   65.43808              11.14114               5.58197
   AR                   81.18017              35.06449              47.59295
   AR                   63.23814              63.42122              58.18648
   AR                   67.96790               9.46321               1.82602
   AR                   96.00740              50.41787              59.80662
   AR                   92.85912               6.55967              26.05151
   AR                   57.52688              55.99490              23.42697
   AR                  107.67412              63.43955              14.69353
   AR                   88.84111              27.90736              30.07741
   AR                   71.78458              51.31082              42.95428
   AR                    1.05317               9.73599              15.45695
   AR                   89.75163              15.80420              25.44511
   AR                   89.72129              55.78292               3.33402
   AR                  110.45432              43.87658              39.60252
   AR                   67.18237              42.50284              18.50872
   AR                  104.27468              63.03604              43.87709
   AR                   83.45551              43.48461              58.60368
   AR                    1.33129              32.18094              10.40706
   AR                   88.74641              41.47015              22.29600
   AR                   86.96109              49.96629               2.23040
   AR                   88.87449              13.61652              15.46122
   AR                   50.32180              27.96195              30.39439
   AR                  107.14295              20.05892              56.97945
   AR                   53.14834               6.28427               8.52725
   AR                   22.51950              29.83799              30.01679
   AR                   98.21834              36.49080              25.89806
   AR                   53.97878              12.44174              46.73952
   AR                   80.18340              39.42087              51.68905
   AR                  101.61025              57.95532              60.23198
   AR                  111.78185              45.85029              18.78515
   AR                   96.40408              16.91732              26.60247
   AR                   91.62904              12.74784              23.89065
   AR                   79.01408              36.36843              31.73745
   AR                   57.76478              18.77492              35.85047
   AR                   87.16940              57.36756              34.34986
   AR                   12.12463              29.31445              24.56617
   AR                   87.34565              49.51792              32.27720
   AR                  110.12016              45.67244               6.15048
   AR                  106.35027              29.98154              21.58275
   AR                   73.76550              16.52997              39.69536
   AR                   64.59658              33.00204              58.59285
   AR                   64.34015               0.39660              25.06413
   AR                   95.70459              14.30694              42.65841
   AR                   67.85919              56.25669              10.22643
   AR                   68.76931              33.76083              31.40225
   AR                  100.07854               0.96827              45.66597
   AR                   64.77776              16.55045              42.46536
   AR                   88.55346              47.88795               8.03517
   AR                   54.16040              27.51816              44.20889
   AR                   81.33577              59.45517              26.63966
   AR                   14.59189              23.89056               7.06878
   AR                   79.21304               7.62060              35.43891
   AR                   68.95698              59.00287              16.35906
   AR                   74.56629              31.33436              25.04597
   AR                   85.82865              20.75173              58.00184
   AR                  103.61042              23.57015              12.70592
   AR                   82.90982              50.64596              21.33781
   AR                   71.81496              21.72556              58.38656
   AR                   88.31702              24.32497              15.58687
   AR                   61.66715              16.23202              63.43188
   AR                   84.86486               1.07961              34.47550
   AR                   99.65866              55.63696              47.90852
   AR                   50.14297              60.85929              25.78127
   AR                   65.32264              40.95182              50.73133
   AR                   23.97390               4.24715              10.90535
   AR                   91.57178              51.59198               8.50975
   AR                   96.50584              39.53313               4.36035
   AR                   71.46991               0.10868              28.21747
   AR                   92.17144              40.82009              41.49413
   AR                   11.62836              29.78476              28.56191
   AR                   82.29308              50.96777              29.85101
   AR                   77.28118              58.22979              19.96244
   AR                   87.39983              28.03948              40.52280
   AR                   82.75394              56.69102              10.88612
   AR                   55.80581              57.38183              38.00327
   AR                   86.62696              59.73580              58.58099
   AR                   98.04626              50.06468              34.09689
   AR                   61.63435              11.56251               8.03534
   AR                   50.70329              24.58175              26.82293
   AR                   87.98117              14.74775              38.05701
   AR                   73.02233              27.82541              62.83275
   AR                   17.20563               1.67019              31.34166
   AR                   75.61071              52.93318              20.52250
   AR                   78.96153              33.02185              23.73248
   AR                   84.35063               0.54256               8.40995
   AR                   57.20628              33.59185              27.37354
   AR                  109.19490              28.98472               7.59443
   AR                   52.01153              10.91762              50.38696
   AR                   61.44051              38.93176              48.25777
   AR                   69.88956              37.17155              59.75531
   AR                   81.65139              42.20304              47.54870
   AR                   51.17611              11.45471              59.96866
   AR                   95.25635              40.61326              11.01168
   AR                   22.60659              19.49056              10.79263
   AR                   92.05742              26.90168              20.19987
   AR                  102.26436               0.46505              27.63199
   AR                  102.50345              52.84684              19.92036
   AR                   91.22629              48.45647              28.51332
   AR                   62.39676              26.99714               5.23117
   AR                   53.88848              23.16358              63.30522
   AR                   70.80411              46.50472              48.83981
   AR                   90.28447               7.11783               0.22059
   AR                   95.63938              34.19091              27.22905
   AR                   58.83574              49.74490              51.42787
   AR                   89.07534              45.67285              25.61898
   AR                   51.88393              20.48071              27.68715
   AR                  102.92611               3.61354              44.81689
   AR                   85.79575              52.72711               9.64448
   AR                   60.01105              60.03547              41.72470
   AR                   55.60394               5.23744              50.64897
   AR                   84.02545              32.96477              16.28059
   AR                   89.87179              47.10879              54.28576
   AR                    8.98095              25.22725               8.45085
   AR                   72.70972              18.67475              60.06869
   AR                   60.55325               2.82152               6.62110
   AR                   53.03018              21.51043              57.27882
   AR                  102.45192              41.97219              35.30873
   AR                   79.62845              40.96030              17.57944
   AR                   57.43272              12.51520              48.86537
   AR                  109.53017              46.60782              51.61276
   AR                  112.29311              37.38366              48.08145
   AR                   26.92322              13.99422              14.48965
   AR                   57.97898              38.36706              28.49574
   AR                   17.70115               7.16888              26.27823
   AR                   66.51709              20.77498               5.27410
   AR                    3.37015               6.80768               6.89581
   AR                   86.35758               9.12162              50.26942
   AR                   91.53968              31.02521               9.42876
   AR                    9.90900               9.37346               6.21166
   AR                   63.80181               8.89425              16.45181
   AR                   92.80110              28.21523              41.87342
   AR                    8.86792              31.69850               5.50411
   AR                   78.67357              47.37867              21.73555
   AR                   59.18067              25.91948              16.11063
   AR                   51.59234              14.50986              35.04151
   AR                   52.30180              56.20899              55.32078
   AR                   91.46136              53.17543               0.05196
   AR                   65.35211              52.01393              26.36741
   AR                   96.58565              57.55305              52.33335
   AR                   85.55247              33.94494              39.53998
   AR                   51.00741              59.20377              51.26874
   AR                    5.90277               8.87553              15.66287
   AR                   92.43486               3.67723              55.59331
   AR                   82.43147              54.65385               2.78608
   AR                   49.87003              18.68301              49.82438
   AR                   66.58440              23.66423              24.20954
   AR                   51.17688              54.71768              49.34271
   AR                   71.87875              37.52977              40.32383
   AR                   54.22257              17.61988              35.96738
   AR                   50.34147              59.14605              15.45721
   AR                   58.80453              45.02478               8.98101
   AR                   51.29502              36.78500               8.01472
   AR                   81.72901              47.36960              24.88968
   AR                  107.28787              40.71001               4.80775
   AR                   87.31986              25.87949              24.96169
   AR                   70.65570              34.21810              42.45387
