       356
            35.32541            54.41841
   AR                   94.40029              30.79866               5.21078
   AR                    5.41236              31.15815               4.42581
   AR                   91.45469               7.54642              49.68285
   AR                   89.41020              23.57851              25.54262
   AR                   20.49249              32.40611              30.15884
   AR                   88.59605              26.62064              24.81246
   AR                   63.08104              32.07162              20.27682
   AR                   28.57241              16.10441              34.74375
   AR                   81.40045              48.08763               6.66160
   AR                    7.16754              34.63764              24.96396
   AR                   26.83055              20.28438              13.23814
   AR                   58.68688              39.65272              21.59092
   AR                   69.35663              17.66400              53.24940
   AR                   58.30607              52.91862              11.29077
   AR                   79.49340              34.15931              15.44541
   AR                   92.58591               0.44753              25.72304
   AR                   76.85470              41.58424              41.80461
   AR                   88.42808              33.50011              45.24390
   AR                   88.82927              36.43766              29.89229
   AR                   86.61624              38.96788              13.87630
   AR                   22.58943              21.01333              30.62958
   AR                   22.74381               0.33697               8.55956
   AR                   69.75861              43.99285              52.91765
   AR                   72.50626              51.95298              41.44255
   AR                   30.23828              21.78787              22.95074
   AR                  105.38513               7.90123              23.61593
   AR                   25.93757               9.28643               1.27182
   AR                   85.51864              23.14722              25.48774
   AR                    4.51292               0.28654               1.62810
   AR                   55.53048              36.48043              14.71592
   AR                    2.90317              20.63745              16.35294
   AR                   57.19891              15.41224              24.08732
   AR                    9.86391               7.26646               2.22703
   AR                   87.57227              13.57189              21.90600
   AR                   28.49806              23.60591              27.46892
   AR                   76.79878              54.35797              32.72326
   AR                  102.29018              50.63010              25.04120
   AR                   70.44060              10.66992               2.74574
   AR                   15.37222               4.71091               6.84248
   AR                   65.47645              51.59668              31.73348
   AR                   80.10315               3.15180              26.91470
   AR                   92.31796               5.90414              53.02749
   AR                   87.10210              30.20936               6.96770
   AR                   66.80657              50.51250              49.89630
   AR                   64.20353              53.23598              37.89345
   AR                   31.74676               2.30369              35.24828
   AR                  106.18911              15.71214              52.98101
   AR                   16.99664               0.77022              24.71821
   AR                   94.86499              46.54082              33.52245
   AR                    0.35029               7.42843              25.33275
   AR                   83.92425              45.34549               3.31113
   AR                   96.93207               2.24868              53.05664
   AR                  105.62433               1.41486              15.67942
   AR                   64.18456              26.03527              30.47236
   AR                   81.67825               1.07595              38.16884
   AR                    7.53608              28.82007              32.63140
   AR                   91.05244              47.41978               9.65164
   AR                   76.09184              54.30065              15.29829
   AR                   74.22247              25.68741              51.11302
   AR                   88.25513              14.05837              39.57835
   AR                   98.17651              17.53930              31.30228
   AR                   55.38953              40.24032              33.31965
   AR                   55.13233              33.48695              30.00756
   AR                   89.99179              41.66499              45.16785
   AR                  104.98905              16.29253              13.94217
   AR                    8.95065              34.40814              20.28757
   AR                   77.52625              38.88187               8.15059
   AR                   54.38171              22.42490              19.13282
   AR                   70.78519               8.68185              25.92219
   AR                   33.68176               8.34939              13.98967
   AR                    6.43249               9.10123               2.66102
   AR                   29.19561              34.27182              21.24008
   AR                   91.71343              48.78902              44.93430
   AR                   69.78008              12.50475               9.42711
   AR                   12.64448              31.33973              26.60174
   AR                   99.03150              25.71138              25.32826
   AR                   77.73913              48.61903              19.30488
   AR                   96.06125              21.47626              13.37822
   AR                  105.05589              16.32961              23.92889
   AR                   54.80414              32.40436              34.01185
   AR                   83.69413              14.52774              14.85523
   AR                   71.30305              32.65417              40.12810
   AR                   97.48274              30.00278              27.27541
   AR                   19.21102              12.01929              25.01498
   AR                   84.96086              25.65457              30.28133
   AR                   61.16037              14.35227              23.42055
   AR                   60.57063              40.22702              43.64465
   AR                   88.15414              51.93709              17.21052
   AR                  102.65747              12.09639              12.20387
   AR                   94.05298              21.01591              42.37465
   AR                  104.33640              16.32592              19.33981
   AR                   54.55754              49.89230              24.07278
   AR                   88.94013              27.90438              48.73658
   AR                   62.58846              21.14589               8.28182
   AR                  100.30348              47.63664               0.97153
   AR                   30.43734              20.71392              29.81063
   AR                   62.07245              28.47481              46.25084
   AR                   75.20949              19.56644              20.63443
   AR                   76.65835              41.22590              45.36287
   AR                   97.16732              25.71592               4.44270
   AR                   70.45536              12.80191              30.41456
   AR                   87.94965              49.81629              28.92153
   AR                   65.15036              51.55436               8.13601
   AR                   87.59698              52.64548              33.24818
   AR                   68.08141               0.57928              52.47869
   AR                   19.69714              10.00636              19.37667
   AR                   57.43873               3.71544               4.93063
   AR                   72.82164              48.35655              42.68243
   AR                    4.22031               2.63022               8.33422
   AR                   68.53588              54.16717              32.42986
   AR                   68.86725               5.24585              14.78273
   AR                   87.25402               4.27039              13.05516
   AR                   17.37499              21.73003               2.50618
   AR                   99.84027              33.44686              26.94789
   AR                   85.48388              22.26626              34.16741
   AR                   16.57816              17.84470               0.28094
   AR                   90.48551              45.69936               5.85516
   AR                   68.25504              50.78130              27.28120
   AR                   60.12346              40.58839              47.38470
   AR                    4.70671               3.45457              21.18400 FRACTIONAL
   AR                   93.05143              20.24445               2.05247
   AR                   99.83977              21.61171              29.01284
   AR                   17.75485              12.45782              15.69748
   AR                  100.91767              30.49449              30.66662
   AR                  101.38131              46.42080              42.12173
   AR                  100.79411              37.67569              12.65443
   AR                   22.83083              30.49463              27.46650
   AR                   82.97119              34.23583              14.14736
   AR                   80.65825               0.12173              48.45593
   AR                   21.51997               4.44536              12.64907
   AR                  106.57152              34.58975              32.29966
   AR                   18.34819               0.33840              16.18167
   AR                   22.86825              22.16841              12.30597
   AR                   18.38207              23.40313              18.22116
   AR                  101.41086              20.01206              44.07965
   AR                   53.49466              16.67641               1.08747
   AR                   94.05143              54.05976               5.41839
   AR                   35.23424               3.82293              14.53304
   AR                   98.16822              23.17601              48.87987
   AR                   34.22642              33.24750              12.87578
   AR                   55.87669              30.38167              12.06652
   AR                   93.26226               5.91515               6.98365
   AR                   99.83654              19.54560               8.89096
   AR                   55.83328              28.71573              39.93070
   AR                   81.84744              42.79732              29.25905
   AR                   72.62505              44.58747               5.33961
   AR                    8.32272               0.50819              28.20789
   AR                   60.66323               0.76562              38.81051
   AR                   69.94872              31.02536              27.98341
   AR                   35.15207              22.49923              17.64240
   AR                   63.38056              11.53029              31.52190
   AR                   95.09464              41.74460              16.98503
   AR                   80.96247              18.54951               6.33717
   AR                   63.51326              44.37917              19.25094
   AR                   74.41843              13.50012              21.01081
   AR                   72.90101              15.46987              38.53839
   AR                   13.26014               3.91105               8.97422
   AR                   62.79014              24.71937               6.71806
   AR                   12.15717              31.97017              12.27558
   AR                   61.12031               1.01740              21.03540
   AR                   58.88660              17.57816              31.89836
   AR                   34.59307              11.33911              14.78850
   AR                   72.93547              46.98039              15.58841
   AR                  104.52687              53.05538              28.88282
   AR                  103.56814              29.95420              13.14163
   AR                   99.81502              27.32737              13.60838
   AR                  103.55128               8.69611              38.75862
   AR                   77.53911              30.17291              38.27658
   AR                   79.17889              35.38874              42.99001
   AR                   78.49640              29.28830              29.69561
   AR                  105.45127              10.30771              48.52774
   AR                   89.09995              45.05437              26.65732
   AR                   70.72448               2.32557              37.90352
   AR                   96.50680              44.85875               3.80229
   AR                   85.93710              45.29881              18.18986
   AR                   81.53330              28.83748               7.87416
   AR                   23.05241              31.69850              18.96359
   AR                   93.80604              18.82552              52.95006
   AR                   19.46087              15.59290              22.46557
   AR                  104.05616               2.03998              26.95157
   AR                   82.90063              30.85132              33.89171
   AR                  102.08989              16.49353              42.20230
   AR                   89.42539              36.32213              12.59596
   AR                   98.18472              34.06888              37.76228
   AR                   83.16367              24.42225              38.68127
   AR                   29.18362              19.97762              10.96599
   AR                   14.65741              31.92270               3.24540
   AR                   83.96763              31.69189              50.37819
   AR                   86.44900              27.85687              13.78808
   AR                   97.29204              14.44166               5.27343
   AR                   58.16821              25.33609              35.47605
   AR                   13.13401              20.12644              18.86912
   AR                   25.98854               8.79620              33.19807
   AR                   59.78586              37.52186              24.70949
   AR                   63.00422              16.13009              14.40597
   AR                   79.50293               1.15598              52.46599
   AR                   86.55258              17.52016              42.77586
   AR                   33.78552              30.55915               4.47589
   AR                   16.05763              32.16878              25.41578
   AR                   65.16460              39.13929              47.19197
   AR                   61.99674              48.49775              27.72636
   AR                   76.44241               3.08548              17.52912
   AR                   19.91383               5.93736               7.46111
   AR                  105.19645              39.28509              20.66371
   AR                   54.22386              30.97355              53.07104
   AR                   53.45947              24.20057              14.15828
   AR                   25.73936              27.35937               8.16996
   AR                   33.38388               6.98972               3.01159
   AR                   69.12332              50.79931               8.90040
   AR                   29.57229              22.98251              12.00881
   AR                   62.17822               5.41949              11.46570
   AR                   68.86311              17.11091              22.71805
   AR                  101.81810              11.81407              16.60688
   AR                   87.97583              38.23328              52.22469
   AR                   33.30596              12.00876              31.77837
   AR                   90.39603              22.23644              47.83264
   AR                   20.98668              32.76012              21.80858
   AR                   89.49485               0.23501              40.39370
   AR                   61.00699              49.13454              33.28841
   AR                   22.42639              32.33841              10.82078
   AR                   72.41014              10.72269              38.87120
   AR                  105.86757              40.26662              11.46391
   AR                   66.27434              17.29269              14.85793
   AR                   82.80618              51.47933              12.62154
   AR                   95.69638              42.42999              51.87305
   AR                   28.35256              11.45565              21.93986
   AR                    1.36989              11.00990               1.93653
   AR                    0.35663              17.10478              10.45606
   AR                   62.29193              22.86071              51.52621
   AR                   85.88670               4.79917              17.00473
   AR                   32.50273              31.32660               1.43875
   AR                   74.99433               1.89190              35.56563
   AR                   10.40324              33.68269              35.19354
   AR                   16.88430               2.71725               3.34575
   AR                    4.07437              27.05556              17.71140
   AR                   73.62858              53.99678              17.10812
   AR                   16.04433              35.04735              11.60076
   AR                    2.11278               3.87144              27.10930
   AR                   92.96931              29.55038              47.61292
   AR                   64.11566              31.20658              10.17497
   AR                   59.93611              33.01775              10.01388
   AR                   19.83106              28.16684              27.03427
   AR                   91.94120              38.16764              51.63833
   AR                   77.76152              36.92133              49.94074
   AR                   64.22313               1.71399              10.13780
   AR                   33.69745               1.82169              29.20758
   AR                   65.03287              35.39084              27.38282
   AR                  100.69606              22.02699              12.30635
   AR                   92.14647              38.40334              32.07380
   AR                   78.59514              32.05234              52.02349
   AR                  106.34207              38.39271              25.63861
   AR                   93.93209               2.02421              42.90485
   AR                   32.46819               8.35855              26.51483
   AR                   65.89896              20.86880               6.92956
   AR                   92.62972              41.58126              26.31695
   AR                   63.00260               4.62211               8.32555
   AR                   54.58049              49.37301              15.93769
   AR                   96.86588              40.84997               8.10452
   AR                    7.48576              26.41169              29.64843
   AR                   60.53293              49.84697              14.74863
   AR                   20.20288              14.75303              19.12236
   AR                   93.16507              34.60736              54.07441
   AR                   55.75030               2.37749               7.67395
   AR                   88.34718              51.20521              38.97090
   AR                   85.49719              20.67134              38.08108
   AR                   66.59652               4.61445              44.41929
   AR                    8.54139              17.84567              26.29995
   AR                   70.51564               5.35402              46.11745
   AR                   56.15391              30.04307              29.53373
   AR                   95.96908               5.83749              19.01706
   AR                   84.64593              48.73870              31.53786
   AR                   96.27552              24.77075               8.53305
   AR                   96.06773              39.78870              22.86515
   AR                   53.95445              42.58316              18.82843
   AR                    7.96603              28.54309              18.64431
   AR                   28.18010              10.34932              17.87826
   AR                   57.85854              38.99696              30.19815
   AR                   30.56906               0.88310              31.55589
   AR                   93.49380              16.32868              22.32043
   AR                   82.84447              17.97336              16.36765
   AR                   64.69430              35.98625              11.47121
   AR                   85.10232              40.27426              28.81669
   AR                    2.94758              31.11616              28.82317
   AR                   25.56513               2.21191               5.42295
   AR                   87.48282               5.42614               4.91478
   AR                   74.26009              37.18960              43.46725
   AR                   24.20878              25.88995              34.64278
   AR                   67.27326              38.41731              20.13500
   AR                   96.00852              18.72017              49.42106
   AR                   77.64807              52.14526               9.64118
   AR                   23.69562              13.47632               8.03925
   AR                  104.73871              47.83656               3.23244
   AR                   33.47932              15.54731              27.63881
   AR                  104.99427              22.70156              25.70717
   AR                   25.68484              33.28862              34.73785
   AR                   79.38175               4.45889              37.24605
   AR                   32.69390              23.71534              35.31748
   AR                   79.61701              43.91072              52.38463
   AR                   73.70532              19.40527              17.04731
   AR                   13.86933              29.23058              28.63983
   AR                   81.40386              11.60039              18.09805
   AR                   80.98171              16.24177              53.39222
   AR                   82.02002              37.00330              16.71458
   AR                  102.41074              52.16191               8.74683
   AR                   58.58345              42.99337              51.16126
   AR                    7.60801              18.63247              30.34287
   AR                   64.31779              30.94901              28.37311
   AR                   22.58016              16.42359               1.13446
   AR                   65.05655              21.28500              23.79189
   AR                   70.61316              42.40237              24.81433
   AR                   22.01788               7.18897              17.69583
   AR                   16.62359              32.46974              21.55694
   AR                   14.26768              34.40566               5.60098
   AR                   23.54045              14.86692              29.73569
   AR                   79.23065              40.84460              48.51704
   AR                   79.14468              52.03712               1.27010
   AR                   64.37007               3.83408              20.70777
   AR                    8.86838               6.27929              22.19754
   AR                   68.36913              45.02042              39.62834
   AR                   55.16172               2.91841              37.46349
   AR                   67.67465              28.48294              12.47828
   AR                   97.16319              41.43285               4.51313
   AR                  104.50675              54.11114              24.00782
   AR                  107.39857              50.46834              21.19309
   AR                   22.31870              17.85931              20.99429
   AR                   31.32227              19.50279              16.31239
   AR                   87.56741               6.89202              29.64970
   AR                   80.87999               4.81146              50.49587
   AR                   17.38438              15.36026              27.24849
   AR                   63.55182              51.93412              27.71387
   AR                   84.73924              17.91559              51.95768
   AR                   69.08995              33.43878              11.24014
   AR                   84.62383              53.23143              45.61203
   AR                   69.03513              18.79222              28.44527
   AR                  106.47653              37.13890              18.45768
   AR                   79.27485              27.01428              17.10319
   AR                   29.21332              10.99568              33.22295
   AR                   84.68788              29.95552               4.68189
   AR                   91.89795              42.46742              41.77139
   AR                   99.31983              24.06208              39.34795
   AR                   67.20299              24.09300               6.87530
   AR                   71.03013              24.04246              21.49153
   AR                   89.61500              29.29523              28.69414
   AR                   60.44741              40.76952              32.69740
   AR                   78.16697               8.46688              46.38217
   AR                   34.45324              10.65625              10.49512
   AR                   59.27275               7.06879               3.08479
   AR                   19.90670              13.79717              29.53729
   AR                   33.60349               4.81886              23.57163
   AR                   69.45309              12.21907              14.54985
   AR                   79.03810              10.79921              13.00584
   AR                   93.83587              26.72389               6.00956
   AR                    3.56212               5.99788              21.08031
   AR                   21.40743              27.94330              23.58411
   AR                   54.50821              45.54349               7.19182
   AR                  102.55102               5.34158              25.62435
