       321
            35.40332            55.77669
   AR                    2.25876              17.42364              28.89244
   AR                   89.94221              21.60217              46.52631
   AR                   90.87336              11.01157               9.49126
   AR                    8.23410              25.82081              18.88070
   AR                  102.85183              16.80163              32.19911
   AR                   80.41300              48.69428              47.70793
   AR                   96.91546              13.28383              29.38858
   AR                  103.47040               5.06597               2.79577
   AR                   91.70900               3.79410              20.21235
   AR                   72.24584              41.97704              11.27359
   AR                  108.47421              28.44258              39.06195
   AR                   57.70175               8.95703              36.33133
   AR                   25.56352              12.05310               0.44103
   AR                   81.66540              45.71571               5.33087
   AR                   19.07184               1.40379              12.95308
   AR                   58.36069              40.20522              44.87705
   AR                   31.50496              10.93870               6.13695
   AR                   62.61307              45.67890              54.01471
   AR                  107.19532              50.35012              15.04219
   AR                   33.39538              12.56401               8.21575
   AR                    0.99266               3.02686              29.83317
   AR                   63.07447              47.63054              47.33127
   AR                   86.53122              46.73289              47.22435
   AR                  107.57956              26.22765              11.53616
   AR                   90.05385              47.08399              41.92319
   AR                   24.87204              16.47011              30.45977
   AR                  105.00708              41.67535              45.05609
   AR                   78.84201              43.57995               5.78881
   AR                   76.11582              33.90052              32.49144
   AR                   70.93036              48.42072               6.20623
   AR                   87.95725               0.04597              31.18295
   AR                   91.40959              15.73403               7.87311
   AR                   63.45691              27.50966               1.87016
   AR                   65.42989              38.46618              44.10086
   AR                   15.59766               0.52960              11.12943
   AR                   65.62153              15.29389              48.48179
   AR                   63.46252              52.51747              38.67830
   AR                   70.92211              10.15510              32.31175
   AR                   83.90447               0.57391              11.71318
   AR                   83.32042              54.74498              44.52304
   AR                  102.23574               4.68911              16.38329
   AR                   70.10255              17.86547              53.81628
   AR                   77.10203              37.40490               3.38928
   AR                   85.14922              18.99086              54.48018
   AR                   59.42510               3.83624              43.86036
   AR                   63.18572              37.29968              51.40659
   AR                   76.95403               2.28598              39.54558
   AR                   55.35690               9.82119              20.99414
   AR                  100.30279               6.56537              47.07266
   AR                   83.17426              55.65940              38.60024
   AR                   77.35749               6.11436              33.33097
   AR                   54.11072              50.07250               9.96203
   AR                  107.62493              42.53556              27.32880
   AR                   30.03170              34.19907              14.57871
   AR                   56.31813              46.97438              47.88143
   AR                   60.67753              18.77996               2.74911
   AR                    0.58484              10.61548              13.29324
   AR                   86.90631              54.43826               8.80301
   AR                   74.70094              16.20607              50.28343
   AR                   34.76636              16.89049               0.79717
   AR                   21.26048              34.57085              24.72847
   AR                   73.74790              40.86107              14.56617
   AR                   89.31251              32.54412              41.13834
   AR                   89.10115              24.27524               6.91910
   AR                   87.81668               1.31255              54.16243
   AR                   31.73291              34.86806              33.05077
   AR                  108.84863              38.26291              18.94193
   AR                   68.72115              39.90843              42.27898
   AR                   88.81081              48.73124              44.31693
   AR                   74.59302              54.35592               4.94842
   AR                   59.54543              26.77324              19.60577
   AR                   64.59103              32.55592              48.52466
   AR                   90.65284              16.28962              47.81702
   AR                   53.14168              54.38879              47.47821
   AR                   82.42901              34.77230              33.72781
   AR                   20.74927               4.98226              16.64670
   AR                   68.82992               5.41686              32.95257
   AR                   56.15852              29.84729              45.83336
   AR                  104.43504              44.58057              53.34454
   AR                   21.16120               6.03309               0.08425
   AR                   85.07594              37.52450              51.58891
   AR                   98.76026              31.08264              26.11081
   AR                   89.90384              34.45940              15.55893
   AR                  100.19988              21.61121              28.88472
   AR                   74.27803              44.04722              16.60920
   AR                   79.18877              26.08572              47.31835
   AR                   90.21378              27.46989               8.15785
   AR                   75.03416              42.92431              27.13188
   AR                    9.41317              33.71983              10.21999
   AR                   82.10958              31.37028              29.27879
   AR                   24.70226              15.55600              20.17820
   AR                   83.38346              50.96071              46.34423
   AR                   55.32648              42.02723              17.71863
   AR                   79.64519              20.85685              33.06276
   AR                   72.94100              16.69128               9.48623
   AR                   73.22153               7.19999              51.76940
   AR                   68.27361              23.73036              17.17568
   AR                   27.38943               0.92407              22.73265
   AR                   30.31042               7.58307              21.25740
   AR                   85.21015              32.73971              11.06472
   AR                   62.48794              12.02033              21.31159
   AR                   18.32755              25.26818              26.79106
   AR                   32.74147               4.36464               3.61999
   AR                   79.99775              37.73493              36.74437
   AR                   25.25535               8.10969              10.90063
   AR                   64.57993              25.79064              50.35050
   AR                   89.32224              17.84965              51.95821
   AR                   83.73994              20.36613              26.46287
   AR                  103.83149               4.63876              44.83892
   AR                   90.28176              44.28423              23.40516
   AR                    0.22668              15.89252              25.11352
   AR                   32.86022               4.50026              33.29348
   AR                   70.19832              32.48929              30.96487
   AR                  107.85197              32.96218              25.23821
   AR                   53.52661              12.16147              48.84324
   AR                   76.19078              40.70828              34.97325
   AR                   83.36705               5.90722              49.45784
   AR                    5.22531              17.76858               6.39534
   AR                   89.31474              47.72864              50.07159
   AR                   81.65832               7.46241              26.94891
   AR                   55.79824              11.11448              44.10311
   AR                   94.37817              37.03994              22.72336
   AR                   23.47352               3.11584               0.72617
   AR                   65.18745              33.20971              12.09464
   AR                  103.36357              16.79165              16.91060
   AR                   16.12360              10.68170              17.09875
   AR                   66.29960              34.80271              54.60696
   AR                   11.69191              22.65535              30.85713
   AR                   59.57742              53.62648              45.06186
   AR                   72.55322              23.12965              46.51369
   AR                   69.75674               7.44153              29.21646
   AR                   88.77512               6.49753              52.41869
   AR                  103.19634              35.98234              45.02335
   AR                   56.26931              26.92011               6.15933
   AR                   86.01025              47.64786               2.65335
   AR                   18.47390              19.95516              31.07831
   AR                  106.58393              23.16789               0.02043
   AR                  101.51097               7.99537               4.34610
   AR                   31.71063              29.69358              34.55475
   AR                   93.96109              14.39192              13.56536
   AR                    9.90546               2.45517               1.76880
   AR                    3.96784              13.06604              29.52899
   AR                   54.10197              42.00717               2.13819
   AR                   78.08142              18.47518              13.80025
   AR                   87.46073              10.88393              47.56082
   AR                   71.08241              38.18162              11.45704
   AR                   74.04267              28.72882              39.85868
   AR                    1.93198              15.40416              21.19012
   AR                  103.92708              32.15473              48.65766
   AR                   56.10456              15.66404               3.22810
   AR                   20.45103               1.02146               3.48176
   AR                   81.42965              10.03944              54.21660
   AR                   27.78273               8.49369              13.64277
   AR                  105.05976               9.25864              19.44038
   AR                    9.10422              30.12984              15.36616
   AR                   68.74886              32.95291              11.27664
   AR                  100.91726              45.21639              10.75297
   AR                   80.82433               9.85552              37.69363
   AR                   65.64326              20.30145              18.54423
   AR                   22.54249               1.47420              15.14898
   AR                   29.92594               5.94580               1.48388
   AR                   90.54744              40.15726              48.78844
   AR                   26.11882               8.80104               6.93031
   AR                   93.32138              43.53358              26.43077
   AR                   93.80464              27.77216               2.42246
   AR                   21.31403               1.63716              22.02923
   AR                   94.78012               4.65889              55.00466
   AR                   87.45672              42.83362               1.76592
   AR                   67.68066              26.82754               6.57623
   AR                   60.76605              51.44558              50.75968
   AR                   96.76600              37.38415               8.92540
   AR                   76.96242               4.66420               5.00102
   AR                   11.03858               7.17943              22.40897
   AR                  108.37743              46.15557              36.50224
   AR                   76.13206              18.29700              22.23929
   AR                   53.11863              25.64528              41.65745
   AR                   34.94042               2.40667               0.88346
   AR                   84.83377               9.76535              27.01584
   AR                   62.77825              19.80079              43.75301
   AR                   23.31858              16.14763               8.35715
   AR                   98.99849              14.40045              25.95500
   AR                   75.71833              40.24402               5.81690
   AR                   83.52612              30.37630               8.20566
   AR                   23.68233               2.32973               7.96511
   AR                   53.23222              16.70467              49.33044
   AR                   64.89403              15.86834              53.53245
   AR                  108.24313              46.24989              30.39052
   AR                   59.16034              40.22254              34.05654
   AR                  102.06124              44.64729              48.92640
   AR                   80.84540              21.14854              12.98304
   AR                   11.23711              23.05738              15.20311
   AR                   74.60470              43.59064               8.73465
   AR                   57.02126              29.40920              17.18641
   AR                  102.43437              26.11385               0.79214
   AR                   88.62686              37.53674              17.01540
   AR                   55.74836              53.67777              54.77098
   AR                   62.45779               9.72757               6.50714
   AR                   94.53618               1.20908              12.35845
   AR                   23.01768              15.14256              17.17362
   AR                   17.77150              19.64975              13.69089
   AR                   67.31993              47.98373              14.26491
   AR                   81.68899              51.72299               3.80933
   AR                   62.74070               3.34056              31.66662
   AR                   66.10696              47.86392              55.06591
   AR                  106.03097               4.69204              27.82951
   AR                   70.70393              25.00060              39.36718
   AR                   67.59796              15.85862              20.89539
   AR                   89.51207              24.58075              10.65827
   AR                   75.66079              36.36059              20.85414
   AR                   11.04404              20.27877               5.72590
   AR                  107.46769               8.53883               9.39663
   AR                   94.80293               6.13544              11.07429
   AR                   12.46936              24.83901               0.95946
   AR                   32.27610               0.75496               2.34481
   AR                   11.92967              29.89476              29.68584
   AR                  106.53964              29.24068              35.99743
   AR                  106.20070              10.17315               4.29734
   AR                   85.30136              11.82347              21.67621
   AR                   83.53862              44.73942              48.22564
   AR                   21.83885               9.71132              24.22387
   AR                   14.54033              34.17085               7.06433
   AR                   81.05332              17.49853              27.01154
   AR                   56.83266               7.67544              33.30814
   AR                   14.01478              18.58838               1.73965
   AR                   87.54379              30.47576              24.61578
   AR                   88.78177               2.91979              51.08903
   AR                   60.70895              31.24379              10.02446
   AR                   63.30320               3.75237              42.70209
   AR                   12.26256              34.70925              17.90390
   AR                   65.95356              39.82542               2.75160
   AR                   69.66980              21.40597              24.75506
   AR                   75.77241              27.28323              31.41636
   AR                  103.88604               5.95817              20.33688
   AR                   59.94631              17.23877              54.99015
   AR                   75.40069              36.70747              51.92583
   AR                   97.11919               8.57213              24.20096
   AR                   61.23465              37.05683              17.84972
   AR                   96.50033              42.85232              15.31181
   AR                  104.15771              52.02600              52.88723
   AR                   20.17605               4.36774               7.98805
   AR                   94.00677              17.95629              11.79184
   AR                   90.80118              42.21000              19.13560
   AR                   75.71855              14.01063              32.99802
   AR                   70.35520              53.28939              23.46978
   AR                   61.19462               2.50609              54.02106
   AR                   63.88117              54.71385              41.10680
   AR                  105.37005              53.09519              18.13173
   AR                   10.89749              10.27839              30.33725
   AR                   64.39433              25.73622               7.07310
   AR                   70.75197               7.77645               5.59179
   AR                   54.26364              16.12568              31.86450
   AR                   96.28915              23.09592              44.94853
   AR                    4.47599              21.37255              33.56442
   AR                   19.14122              15.00209              30.82315
   AR                   87.05668               6.75302              41.04640
   AR                   63.13443              50.38513              25.78960
   AR                   88.98046              26.79022              43.23801
   AR                   59.84671              23.04201              50.81984
   AR                   99.15755              27.65766              26.82595
   AR                   74.12754              39.68876               0.25890
   AR                  103.98275              21.10775               0.63890
   AR                   70.53192              53.87412              17.60207
   AR                   91.38841              54.05912              54.41530
   AR                   65.63958               0.73389               8.20313
   AR                   10.37103              25.90437              16.58219
   AR                   57.92538              11.77452              26.81704
   AR                   76.20142               3.72228               8.24329
   AR                   89.37553              44.65700              53.79198
   AR                   96.61610              14.67757              44.57240
   AR                   24.75812              28.84461               8.46296
   AR                   55.54066              21.44912               9.56478
   AR                   32.46591              33.36495              29.03819
   AR                   82.93478              17.95191               1.56205
   AR                   61.40154              22.07861              35.37971
   AR                   33.76834              13.19595              23.31397
   AR                   30.13123               7.57308              26.33268 FRACTIONAL
   AR                   59.23647               6.41031              25.20981
   AR                  105.76910              18.18525              12.64985
   AR                   58.73354              13.35421              16.67476
   AR                    1.62838               9.11475               1.08506
   AR                   93.79704              15.78251              53.90112
   AR                   11.75585               1.62467              31.09541
   AR                  108.41057               2.19769              30.36385
   AR                   26.88881              10.75502               3.46875
   AR                   30.12906              12.32333              26.98383
   AR                   55.39741              23.44195              22.78455
   AR                   24.71578              22.53556              17.94730
   AR                   76.61319              55.23580              28.09513
   AR                   56.40867              11.33574               4.57815
   AR                  104.18448              47.10402              29.97080
   AR                  105.95216              12.31732              47.93669
   AR                   57.84348              49.91080              45.12711
   AR                   96.54300              46.14120              53.59035
   AR                   11.91335              14.49367              23.74908
   AR                   84.96160              30.25706              37.28719
   AR                   81.54210              36.99411              14.49715
   AR                   55.45380              50.61727              49.37989
   AR                   57.91535              44.14038              41.52260
   AR                  106.13358              14.25005              17.58176
   AR                   63.27839              36.81176              31.97132
   AR                   32.16711               9.81319              24.52607
   AR                   89.95010              19.53059              24.83856
   AR                   14.87492              21.59308               2.90091
   AR                   59.89287              21.21640              23.68068
   AR                   62.93850              26.95538              13.00756
   AR                  103.38766              13.66502               8.59583
   AR                   65.17687              30.32137               5.30322
   AR                   77.91814              32.40484              11.06433
   AR                   58.75825               1.71854              28.84089
   AR                   72.18664               1.05949              11.86222
   AR                    4.50762              13.16409               3.89044
   AR                   63.34287              54.35579               3.41096
   AR                   75.07373              12.36690              28.57795
   AR                   94.09904              43.94649               7.47658
   AR                   62.09202               7.56486              35.62270
   AR                   83.04606              15.96916              50.90691
   AR                   85.21846              47.31420              29.85746
   AR                   80.42952               2.04204              18.00108
   AR                  101.65040              31.55254              40.27148
   AR                   97.52972              51.90644               9.30880
   AR                   18.05394              14.30499               3.98083
