       301
            33.35838            62.66867
   AR                   73.78930              15.01110               8.82694
   AR                   55.94534               0.55130              48.11990
   AR                   83.07951              27.79252              53.27405
   AR                   99.01098              53.47480              42.88335
   AR                  111.55222              29.64513              53.38885
   AR                   91.87271              33.60450              33.95694
   AR                   71.65843              58.79416              25.76010
   AR                   93.20086               8.19943              56.10673
   AR                   97.92689               2.66097              40.71996
   AR                    1.63405              29.00425              18.82459
   AR                   53.03525              41.07261              13.15458
   AR                   63.93053              59.95839              18.82550
   AR                   98.89745              34.33567              11.84920
   AR                   17.68091               2.72057              11.22221
   AR                   87.46373              37.12723              61.82981
   AR                   91.11364              30.16185              13.34545
   AR                   60.74622              11.82890              17.66606
   AR                   52.98611              14.69873              32.94789
   AR                   84.61166              12.77188              61.11261
   AR                  102.11082              44.34826              43.53333
   AR                  107.79840              34.31050              59.97577
   AR                  111.83031               9.09630               4.01330
   AR                  109.95266              49.34068              11.88394
   AR                   62.59345              46.48932               9.99173
   AR                   53.76820              24.71972              48.17150
   AR                   58.34692              22.67959              35.84614
   AR                   83.35629              14.93474              53.88599
   AR                   17.33214               9.41897              28.10245
   AR                   94.16088              40.02597              20.26371
   AR                  107.62644               6.09643              23.42578
   AR                   93.98714              26.83529               0.75870
   AR                   28.19087              33.23787              11.17533
   AR                   70.24887              23.81760               6.11596
   AR                    5.90189              29.95085              11.28962
   AR                   99.81574              54.51804              16.35166
   AR                   71.27183              32.02345              32.31330
   AR                   62.75059               1.12866              14.32921
   AR                   30.07506              22.76492               8.94381
   AR                   14.91686              15.64609              20.63666
   AR                   88.97424              53.71654              40.66305
   AR                   65.09348              61.42900              11.46645
   AR                  106.46248               7.64437              37.04350
   AR                   71.72896              10.24233               8.84266
   AR                  106.51821              11.38960              28.77972
   AR                  111.41866              15.33723               3.18379
   AR                    9.04810              12.61616               0.45527
   AR                   67.83707              38.54234              58.08029
   AR                   81.83042               7.50965               9.19532
   AR                   57.55629               7.12957              44.41035
   AR                   66.96378              44.45537              49.55110
   AR                  111.33055              26.77131              42.38880
   AR                  101.81897              51.89590              23.62805
   AR                   70.02901              27.83046              37.92804
   AR                    8.18577              17.98377              12.70660
   AR                   82.89743              59.11439              11.09506
   AR                    5.18797               7.53994               8.85741
   AR                   78.73675              15.45032              18.42680
   AR                   90.22104              30.75122              37.12863
   AR                   56.68265              25.59706              31.09449
   AR                   18.45191              23.70518              32.18372
   AR                   89.95239              38.26033              36.74790
   AR                   90.46879              40.32387              14.58983
   AR                  104.48195              46.82997              32.28490
   AR                   62.88581              50.17896              10.04953
   AR                   82.31791              17.31221              22.51743
   AR                   75.41402              32.60621              37.51729
   AR                  101.48724              17.66895              23.69917
   AR                   13.36865              25.55213              26.89055
   AR                   99.41164              47.49629              41.69579
   AR                   95.22788              58.53230              55.08271
   AR                   76.02113              20.81603              14.36110
   AR                   99.46697              42.46061              48.47368
   AR                  107.80264              17.81442              59.29289
   AR                   72.72015              24.11582              24.18212
   AR                   54.30541              22.95350              42.55438
   AR                  107.10664              57.46051               7.16296
   AR                   78.86316              46.94125               5.27118
   AR                   76.68661              17.37309               9.89233
   AR                   69.49534              26.88043              48.73796
   AR                   97.04866              53.96110              28.33775
   AR                   57.42222               7.83297              18.19654
   AR                   70.08188              18.84007              61.63911
   AR                   71.53048              30.52666              12.47039
   AR                   77.99748              58.81856               2.98074
   AR                   93.06729              26.22239              55.94441
   AR                   95.62699              36.57093              55.35668
   AR                   67.49042              39.12541              20.35810
   AR                  112.57990              44.36577              13.47296
   AR                   90.03646               6.86443              10.59148
   AR                  102.75095               5.90097              34.22757
   AR                   10.59473              23.58614              31.94797
   AR                   50.64407              15.65632              26.72966
   AR                   80.17470              25.27797              21.03122
   AR                   74.14454              43.11212              52.35860
   AR                   23.85089              26.49160               0.25247
   AR                   98.43272              28.85595              32.25705
   AR                   63.60164              19.72383              34.95213
   AR                   60.82139               9.44307              49.50716
   AR                   71.09528              26.49825              12.85593
   AR                   55.86538               6.19107               8.44474
   AR                   86.83066              50.13988              10.53888
   AR                    8.63976              30.41867              13.69813
   AR                   82.06743              39.67669              39.15035
   AR                  104.23687              35.06314              56.09601
   AR                   87.19639              24.95164              48.44776
   AR                   81.61442              18.67418              42.73463
   AR                   75.47788              31.47919              15.80152
   AR                  105.41231              32.85304              18.68298
   AR                  111.69860               4.69351              46.84876
   AR                   51.33623              28.02678               9.61466
   AR                   78.14417              21.78614              19.87330
   AR                   77.26348               0.23682              55.67301
   AR                   92.82218              55.63173              59.73938
   AR                  103.27481              18.17619              26.52753
   AR                   55.71928              34.08608              59.64000
   AR                   97.43826              53.85156              38.84876
   AR                   86.63270              36.93646              35.56571
   AR                   71.76623              56.63368              34.89444
   AR                   55.44438              36.40205              16.44499
   AR                   30.83223              27.34446              16.24428
   AR                   75.35086              57.42002              47.18985
   AR                  110.59118              52.93972              53.81585
   AR                   85.95219               5.61557              49.40558
   AR                   92.68073               4.93774              49.82293
   AR                  104.43674              20.30646              31.19671
   AR                   71.20489               7.69063              19.72613
   AR                   85.15286              30.78604              19.08550
   AR                   80.82915              41.99950              56.44635
   AR                   56.75577               7.53085              37.96447
   AR                   23.41134              13.75502              10.08917
   AR                  111.38845              19.79772              62.03365
   AR                   73.68526              54.66155              46.04850
   AR                   92.85130              18.17310              26.23515
   AR                   75.64200              47.24500              60.64748
   AR                   56.05998              47.58188              37.60412
   AR                   91.54521              55.33676               4.43345
   AR                   29.88376              15.56246              28.50424
   AR                   27.78756              19.33999               6.61916
   AR                   50.92423              14.71151               0.15319
   AR                   25.70226               3.13788              12.57013
   AR                  112.24924              22.94538               2.76853
   AR                   98.72245              35.34967              38.63638
   AR                  106.74111              14.26433              12.39948
   AR                  108.31465              19.30828              47.96851
   AR                   87.11826              48.42944               6.86574
   AR                  111.35118              28.99604               3.24634
   AR                   54.52281               7.41265              48.56368
   AR                   31.47280              30.93716              12.33713
   AR                  110.58778              41.19468               1.08915
   AR                   59.81371              24.35319               6.63893
   AR                   91.08920              10.65418              44.44194
   AR                    7.66127              12.73058              16.56432
   AR                  109.15118              10.66453              47.30692
   AR                   95.98747              20.73367              23.07678
   AR                  108.63344              44.04288               3.08442
   AR                   78.35213              51.18602              36.78369
   AR                   86.01041              23.90403               3.01530
   AR                   84.60316              58.55009              33.39195
   AR                   52.09300               9.80560              48.90325
   AR                   17.34629              21.66574              17.98202
   AR                   61.85993              14.10220              35.51106
   AR                   96.90081              29.28270              51.78940
   AR                   83.31464              10.28672               5.81661
   AR                  108.27843              46.73136              47.00195
   AR                   96.98452              31.82973              23.35407
   AR                   76.51534              24.67467              48.29827
   AR                   82.63978              22.18715              60.37063
   AR                   79.19789              58.95157              38.07462
   AR                   98.69454              35.40138              45.68136
   AR                   69.81526              28.73170               8.27945
   AR                   73.48041              33.23635              47.37874
   AR                   58.76176              15.80259               4.50213
   AR                   58.73807              51.19409              40.25849
   AR                   50.07965              39.03832              43.73919
   AR                    4.65700              11.41991              27.75935
   AR                  107.87285              14.20041               7.35522
   AR                   90.19518              12.53016              34.82061
   AR                  104.16421               7.94427               7.81587
   AR                   61.48362              59.22282              35.09413
   AR                   51.08501              36.31581              51.63819
   AR                  108.83459               7.81841               1.65932
   AR                   86.19216              31.05691              15.63971
   AR                  105.83736              20.31475              24.68050
   AR                   18.85323              32.26287              18.53112
   AR                   22.21560               6.03020               6.53343
   AR                  111.90534              33.13204              17.67319
   AR                   20.00613               0.78048              26.87957
   AR                   75.92936              58.53435              55.14823
   AR                   89.14547              27.43997              30.14399
   AR                  104.18731              24.74868              38.30845
   AR                   56.35649              60.78695              20.68506
   AR                   18.55869              17.62954              24.59370
   AR                   87.17917              45.64863              57.23447
   AR                  111.51481              29.12873               6.92946
   AR                    1.75667              19.77455              11.05117
   AR                  101.12869              43.03184              19.00863
   AR                   12.34765              16.08934               0.17736
   AR                   97.25454              22.94420              39.79423
   AR                   63.28285              61.06814              43.63162
   AR                   51.06848              58.09270               9.43075
   AR                   70.88467               9.38417              24.92700
   AR                   85.77051              22.63149              41.11072
   AR                   25.46071              29.82953              12.43297
   AR                  112.42678              18.87752              42.81158
   AR                   52.29262              33.62775              12.50865
   AR                   98.17206              22.67141               7.67842
   AR                   85.52465              42.56731              11.95680
   AR                  107.96403              42.41179              35.68565
   AR                   50.15232              44.13400              49.04843
   AR                   77.13517              31.99449              19.52547
   AR                   14.85852              16.26874              16.13819
   AR                   53.36986               4.58608              12.59754
   AR                   86.76496              31.63413              22.76795
   AR                   84.91440              29.34564               6.15747
   AR                  111.42434              38.09737              30.21991
   AR                   95.51595              51.48452              33.40216
   AR                   72.99831              50.06079              28.98744
   AR                   64.25358              46.47808              32.08393
   AR                   63.11477               9.84312              46.45530
   AR                   71.50524              22.85468              38.77480
   AR                  109.52796              50.26838              45.03793
   AR                   69.97386               3.70624              40.51565
   AR                  110.95904              56.84158              61.14960
   AR                   94.34791              36.55619              22.91077
   AR                   31.07990              10.12378              32.42394
   AR                   61.15627              15.34057              15.21776
   AR                   21.04284              33.34243              32.85434
   AR                   88.36597              61.31121              19.61784
   AR                   85.35744              31.42447              59.55542
   AR                   86.61313               1.18000              43.81655
   AR                   85.70746              17.68495              14.44852
   AR                   83.54008               4.70478              37.91373
   AR                   95.74555              34.28290              26.30465
   AR                   89.30357              59.97469              12.73740
   AR                   94.26542              32.85878              29.94696
   AR                   51.77589              22.36701              58.91118
   AR                   54.00088               9.29877              61.74702
   AR                   80.95114              60.38320              62.20040
   AR                   23.10908              25.97501              15.55866
   AR                   70.13094              19.10549              45.32994
   AR                  106.92749              32.95635              56.96490
   AR                   68.18062              58.51364              47.72430
   AR                  103.21230               5.87919              47.26826
   AR                   60.94362              26.59208              31.56449
   AR                  104.74204              11.61118              58.56403
   AR                   84.31312              21.10271               0.97269
   AR                  101.72213              49.67883              42.21321
   AR                   68.05018               7.11897              52.23300
   AR                   57.46961              32.92553               5.50595
   AR                   78.21133              26.85606              54.28343
   AR                   84.03992              43.79332              40.34556
   AR                  108.45187              53.61508              22.08670
   AR                   22.37835               4.42419              21.68125
   AR                    0.37340               8.81409              16.39435
   AR                   80.11205              18.48840              16.60475
   AR                   86.86654               9.49867              53.32442
   AR                   64.61628              24.49751               5.33020
   AR                   60.31344              38.88907              42.92217
   AR                   84.90427              30.23687              47.58137
   AR                  111.80135              32.26787              44.10705
   AR                   79.15310              16.18222              30.43193
   AR                   75.11192              44.22401              55.70270
   AR                   94.82979              57.99708              22.29950
   AR                   78.58003              15.68162               6.72934
   AR                   67.32892              50.08234              43.33993
   AR                  109.54794              34.56602              37.62234
   AR                   62.02339               5.03674              37.58340
   AR                   82.52790              14.70551              48.50447
   AR                  111.18855               8.85734              15.00835 FRACTIONAL
   AR                   80.57631              33.44298              52.03823
   AR                  104.55588              47.64299              24.24652
   AR                   83.36586              45.79116              61.40826
   AR                   57.10115               9.58545              46.95586
   AR                   71.90496              14.23067              55.51921
   AR                  106.77696              15.40666              26.21690
   AR                    4.11044               4.41597              31.29800
   AR                   97.21398              32.73267              57.71022
   AR                   85.78358              37.71571              46.45142
   AR                  100.02079              41.53609              27.48529
   AR                  107.10349              38.53304              36.37138
   AR                   56.45838               1.48681              41.50215
   AR                  100.91332              39.79181              31.43376
   AR                   74.27233              61.81509              23.46806
   AR                   74.69602              24.89517              30.56338
   AR                   71.31828               6.57858              56.86767
   AR                  104.43897              35.97017              16.90564
   AR                   14.53359              19.80511              23.88443
   AR                   60.67121              50.79413              59.38185
   AR                   91.07208              12.85988              15.42232
   AR                  110.65222              58.19566              50.23435
   AR                   16.29516              31.70001              26.49224
   AR                  108.68155              10.25044              34.27741
   AR                   58.02939              12.49076               9.60201
   AR                   97.58719              47.51312              30.96113
   AR                   76.90599              39.40153               8.33204
   AR                   83.74054              62.31446              32.01673
   AR                  104.72739              23.12128              50.02780
   AR                   88.32054              29.19265               1.44662
   AR                   76.92118              13.02336              47.76578
   AR                   50.99449              55.99246              19.82416
   AR                   60.18642              41.10213              11.41510
