       356
            33.50758            55.35787
   AR                   72.14911              12.71792              42.27691
   AR                   75.01435              18.01940              11.20914
   AR                   52.00429              34.75300              48.59060
   AR                   54.98098              45.54319               0.98078
   AR                   53.03797              28.57784              52.97281
   AR                   56.76689              12.44389              35.77112
   AR                   10.71463               4.97246              29.11494
   AR                   90.98721              46.06926              48.76442
   AR                   53.07368              12.01488              17.92734
   AR                   97.18673               7.21432              17.57020
   AR                   22.95704              28.50207              21.41641
   AR                   16.44060              26.73780              19.22282
   AR                    7.95858              31.93465              29.37716
   AR                  104.38774              19.44863              12.17330
   AR                   57.77440              18.84094               6.21207
   AR                   58.58461               4.91766              53.83395
   AR                  104.08285              53.82285               4.93944
   AR                   60.70759               5.72624               5.22185
   AR                   60.40910              10.42855              46.78868
   AR                   87.57535              19.23647               9.85754
   AR                   64.86669              39.44154              33.61530
   AR                   89.42639              22.51950              26.76099
   AR                   84.55580              47.48711              42.64370
   AR                   27.44736               6.44016              17.55863
   AR                   84.74060              41.12431               5.75952
   AR                   91.03692              52.35048              24.27954
   AR                   19.43337              21.68035              22.92915
   AR                   78.52896              49.69064              33.46783
   AR                  104.76957               9.66506               1.08417
   AR                   99.42211              23.37624              29.52880
   AR                  100.63216              44.28758              16.21904
   AR                   68.37269              28.45681              30.67010
   AR                   95.81802              54.29733              18.03820
   AR                  103.78209               9.57333              47.94276
   AR                   52.32447              22.10237              14.43563
   AR                   65.40114               0.24935              14.51013
   AR                   59.83693              26.00603              49.84036
   AR                   51.90453              29.65466              10.89651
   AR                   55.50166              53.24488              48.82779
   AR                   55.71018              42.22240              45.29704
   AR                   67.81872              42.90993              31.54778
   AR                   63.98384              17.08363              24.70935
   AR                   83.92791              49.23080               3.70672
   AR                  101.75191              23.04232              45.23942
   AR                   26.29451              13.42498               9.79990
   AR                  101.01023               5.99110              39.47446
   AR                   93.26337              47.92160              29.85908
   AR                   90.50535               1.74292              45.47421
   AR                   89.15806              53.28425              42.91503
   AR                   10.79071              17.83338              13.53073
   AR                   68.72146               0.78048              10.96199
   AR                   85.95287              22.17237               0.80600
   AR                  104.91573              28.68628              40.54880
   AR                   50.47972              15.52073              23.29726
   AR                   77.67079              37.94727              40.15274
   AR                   19.96489               7.69929              25.24725
   AR                   90.58094              11.02178              51.57079
   AR                   31.71136              20.64740              32.18731
   AR                   21.53515              32.77412              32.08888
   AR                   28.95947              17.51959              19.39354
   AR                   76.02433              54.21751              36.51579
   AR                   88.47356              20.95659              36.88538
   AR                   93.08472              13.50015              22.76692
   AR                   76.57537              35.84363               3.84990
   AR                   76.00948              42.86654               7.91252
   AR                   72.66747               3.06687              43.22209
   AR                   54.72095              15.26835              44.74935
   AR                   64.82680              27.65962              24.38044
   AR                   57.89310               1.13916              51.47358
   AR                   91.46068              50.60411              33.30738
   AR                   58.88616              13.21610              26.72851
   AR                   62.05164              16.32845              40.70824
   AR                   52.06149              29.54529              19.52588
   AR                   69.55728              52.96132              43.16604
   AR                   26.62754              30.61538              24.05818
   AR                   78.00940               9.74154              54.36436
   AR                   50.44098              48.34021              50.09497
   AR                  105.15105               6.39648              19.01673
   AR                   67.94140              32.06943              24.61682
   AR                   95.72211               9.47696              13.85917
   AR                   50.73969              41.38337              44.74569
   AR                   50.31414              48.42687               8.39033
   AR                   59.01482              18.79028              45.28266
   AR                  101.16016              28.80458              34.29156
   AR                   84.27451               9.88035              36.22156
   AR                   77.68214              17.32237               8.54242
   AR                  105.60507              30.19495              13.97599
   AR                   95.77870              39.83880              23.18814
   AR                    5.86750               0.20790               8.17243
   AR                   61.24801              26.93832              28.41167
   AR                    5.06645               3.49370              14.72810
   AR                   89.11614              19.68431              53.40465
   AR                   86.79412              47.34978              34.22704
   AR                   99.47327               9.66508              52.48245
   AR                   52.73897              16.50592              14.50926
   AR                   74.38845              35.58705              36.44925
   AR                   10.03966              10.25718              22.31579
   AR                    9.70619              30.64709              23.78166
   AR                   55.92331              14.25791              23.77766
   AR                   75.15280              34.22791              20.83772
   AR                   68.80215              18.10276               3.97905
   AR                   66.65248              10.90763              52.91235
   AR                   82.82743              28.28608              15.46341
   AR                   22.11587               5.94224              13.19753
   AR                    8.89386              15.78077              18.91864
   AR                   68.03957              34.00220              27.55133
   AR                   71.26091              52.26989              46.39275
   AR                   15.24771              17.45533              12.73887
   AR                   69.66736              40.08377               7.83810
   AR                   70.44148               8.31184              49.29627
   AR                  104.67518               4.03756               4.11884
   AR                   67.35164              19.18092              20.27732
   AR                   91.65867              54.67352               5.77988
   AR                   87.38976              52.00965              29.98370
   AR                   54.30921               7.00470              49.69012
   AR                   99.62367              42.36386              11.65047
   AR                   52.22180              14.21123              10.69195
   AR                   85.47463              49.82808              49.13718
   AR                  104.29250              12.58868              27.75351
   AR                   57.84213              55.07292              17.14537
   AR                   14.25041              15.93185              16.71808
   AR                   54.71402              17.28465               7.68621
   AR                   95.41363               3.38471              11.23937
   AR                   57.58749               8.77266               8.55321
   AR                   55.18507              29.45266              39.72765
   AR                   64.34406              23.11336              31.49196
   AR                   83.92960               9.70979              15.79358
   AR                   94.14461              20.91695               7.56897
   AR                   76.87478              20.26682              34.47236
   AR                   22.68297              26.80431              16.57269
   AR                   64.17531               5.76877              37.02162
   AR                   86.34584              48.54775              24.66563
   AR                   77.45982              19.64952              45.62548
   AR                   99.90106              24.57084              25.09697
   AR                   79.52203              33.42675              19.92155
   AR                   72.33102              53.17238              32.59010
   AR                   95.50337              25.31594              10.25678
   AR                   81.83570              53.84642              31.39422
   AR                   99.09367              33.39028              18.59753
   AR                   83.10799              30.57797              45.20916
   AR                  102.74009              28.66658              17.75720
   AR                   91.86599              48.08709              12.15396
   AR                   99.99688              36.66277              25.71913
   AR                  101.89996               3.38373              49.55141
   AR                    2.35201              10.26989               2.84134
   AR                   60.42380               3.28416              16.29870
   AR                   71.52675              44.80641              21.65442
   AR                   90.57002              18.11314              41.48759
   AR                   86.56635               2.17286               9.65698
   AR                   83.09670              19.12005              22.22280
   AR                   53.65314              48.34086              54.92431
   AR                   68.59168              25.82557              40.96112
   AR                   71.02405              27.67374              14.69621
   AR                   52.13961              12.16178              24.08338
   AR                   94.39925              37.07160              27.42216
   AR                  104.66776              18.17271               8.64969
   AR                   91.18922              28.32310               9.16307
   AR                   81.13228               8.55429              50.94162
   AR                   63.26001               3.97574              18.10875
   AR                   81.22276               0.82848              52.80865
   AR                   88.59533              52.09805              46.63190
   AR                   56.63802               2.50522               1.81290
   AR                   85.91804              31.53424              19.04554
   AR                   69.08901               0.72233               1.67252
   AR                   55.09220               9.86646              25.53817
   AR                   66.79904              21.22095               2.68896
   AR                   78.82054              12.35821              33.55647
   AR                   91.75737              20.07673              24.81792
   AR                   63.26781              37.79349              51.82114
   AR                  104.52096              38.03764              26.43518
   AR                   73.85006              35.41996              13.71643
   AR                   54.38079               9.47618              43.14784
   AR                   86.82549              39.42774              10.48989
   AR                   10.89786               0.88115               6.48103
   AR                   93.08730              28.38099              54.40583
   AR                   87.06290               5.61932              42.29585
   AR                   80.10003              24.80636              13.57703
   AR                   72.30930              50.90022               1.80579
   AR                   96.68679              29.76843              38.32400
   AR                   30.44952              12.69195               0.60765
   AR                   63.00481              16.03230              27.76565
   AR                  102.27917              17.99798              14.31188
   AR                   32.63362               2.38250              17.70336
   AR                   24.65421               8.65937              18.57962
   AR                   52.03079              48.82051              18.78669
   AR                   65.42527              53.20922              54.96083
   AR                   65.54325              35.06834              38.55539
   AR                   97.69797               1.12604              13.40162
   AR                   80.64223              44.81885               4.63043
   AR                   65.91302              48.96493               2.61434
   AR                   89.14026              45.90361              45.29433
   AR                   96.26004              29.97969              25.94156
   AR                   91.38027              33.00206              54.90447
   AR                   80.97293              35.35157               2.36164
   AR                   94.94445              54.57196              13.47238
   AR                   82.06495               2.69465              37.23241
   AR                   96.27601               5.55535              40.82081
   AR                   72.84383              16.70975              26.57056
   AR                   52.43188              44.82349              29.95521
   AR                   66.93521              51.47629              39.38838
   AR                   73.27789              28.33479              35.61612
   AR                  104.70873               8.48649              28.59649
   AR                  100.14585              40.94819              27.14982
   AR                   84.78035              26.50559               8.31480
   AR                   82.32813              42.12443              13.54297
   AR                   76.91609              20.45703              25.45138
   AR                   19.31724              33.05685              19.66632
   AR                   68.47125               0.44348              39.58364
   AR                   89.38355              31.65628              20.14835
   AR                   65.68781              36.58545              48.11900
   AR                   55.16847              35.40234              41.35943
   AR                   57.74699              32.22523               0.44366
   AR                   64.19686              26.77723              38.45469
   AR                    9.99065              30.84060              16.30565
   AR                   60.33614               3.81405              22.58288
   AR                   85.20517              47.27643              17.81728
   AR                   88.81405              48.38727              27.86747
   AR                   13.40709              32.63002               6.35359
   AR                   76.35564              52.49565              53.31827
   AR                   80.05704              25.10564              41.92025
   AR                    6.24872              15.84042               4.83339
   AR                   64.50347              12.95583              18.75789
   AR                   88.82826              52.75937              27.12733
   AR                   95.57399              15.68596              55.16340
   AR                   62.95017              30.01887              34.17802
   AR                   50.70626               8.53649              25.32773
   AR                   52.64168              18.62437              49.61709
   AR                   15.23066              22.38223              21.46346
   AR                   94.82867              44.22141              47.41916
   AR                   63.25710               9.25554              54.91349
   AR                   71.80250              53.17680              51.34448
   AR                   29.95473              13.97946              17.06090
   AR                   52.13611              11.35747              12.98667
   AR                   79.53794               5.44829              27.09019
   AR                   88.18106               4.85080               2.58394
   AR                   66.93614              20.19930              51.78431
   AR                    3.31450              21.17979              23.64598
   AR                   81.58143              47.80063              48.69599
   AR                   99.67513              20.24577              48.96200
   AR                   96.45166              45.79544              22.50211
   AR                    0.92747              18.57549              19.41572
   AR                   17.16266              22.53899               2.64586
   AR                    9.77917              21.00267              14.87370
   AR                   52.70413               4.81815               8.67659
   AR                   55.18014              23.50681              50.79180
   AR                   85.33872               6.71958              14.19103
   AR                   70.57427              19.96464              31.48978
   AR                   68.16386              25.29912              13.08330
   AR                   75.97011              10.89336              43.10339
   AR                   59.36872              45.38112               6.31872
   AR                   95.02146              13.50850              49.28566
   AR                   12.25963              14.24276              12.38655
   AR                    2.21496               1.90393              24.14436
   AR                   88.11673              17.38384              28.91283
   AR                  104.27738              54.63411              24.06113
   AR                   61.86732              54.03926              17.45505
   AR                   74.57436               5.62620              33.64606
   AR                   29.09620              32.57232              14.08657
   AR                   19.99181               9.54866              28.26685
   AR                   69.33638               1.78266              42.47129
   AR                  104.94780              42.45341              48.54686
   AR                   65.68334               0.05538               3.88090
   AR                   55.40841              26.98598               0.03179
   AR                   26.59777              19.44459               1.32196
   AR                   72.73907              25.58087               5.76083
   AR                   11.68484              26.78726               1.71010
   AR                   57.85390              51.09639              50.82578
   AR                   96.91471              21.36253              32.00121
   AR                   78.13596               5.91123               0.34668
   AR                   70.21004              34.53157              53.18658
   AR                   12.82159              27.29347              28.21785
   AR                   63.84201               0.49691              37.19778
   AR                   58.23276               7.08921              34.68218
   AR                   60.91723              10.38024              17.00727
   AR                   77.36999              31.96736              17.71840
   AR                   89.77146              27.11257              29.43937
   AR                   98.26799              25.05867              32.83797
   AR                    7.97962               5.45554              16.05212
   AR                  102.27111              17.74820              53.52665
   AR                   95.32619              26.28948               4.39427
   AR                   71.58614              48.34070              47.94075
   AR                   97.46958              15.36750               6.00579
   AR                  103.83378              47.95957              21.84680
   AR                   73.27792              13.14925              27.85410
   AR                  105.38970              49.86687              11.67106 FRACTIONAL
   AR                   91.67688              15.05963               5.93684
   AR                  102.06711              35.00995              47.56484
   AR                   95.57646              37.92862              51.14732
   AR                   50.41618              15.92440              33.20743
   AR                   52.50977               1.78324               6.70778
   AR                   76.31189               6.72393              41.15666
   AR                   84.39742              40.19786              40.44599
   AR                   73.92431               6.13003              38.33685
   AR                   73.34704              36.10281              17.75916
   AR                   59.05879              20.98108               0.50129
   AR                   66.02441              12.37869               5.60947
   AR                  105.16282              24.11227              42.44845
   AR                   82.63499              46.07995              20.21867
   AR                   14.46410              21.94116               9.43139
   AR                   64.21662              34.35066              55.21419
   AR                   79.54789              47.04190              55.07874
   AR                   64.61513              11.21710              49.11565
   AR                   52.97255              54.38515              34.72627
   AR                   51.68842              23.04817              32.58695
   AR                   61.52810              50.73113              48.19852
   AR                   55.96853              49.28116              30.20173
   AR                   78.08212              25.38248              33.73436
   AR                   67.24276              46.44987              32.36320
   AR                   91.27605              45.50158              53.79276
   AR                   80.17474              49.25904              37.63675
   AR                   90.54320               3.30910               0.22047
   AR                   61.76577              23.42361              37.15881
   AR                   74.14269               2.95515              29.49061
   AR                   70.40524              35.17302              31.29690
   AR                   55.91604              27.58364              30.29787
   AR                  100.24071              38.59079              20.53073
   AR                   94.98334              53.12162              28.64627
   AR                   70.29266              34.27551              43.42118
   AR                   75.24551              44.59510               3.05205
   AR                   89.10675              43.82984              33.66493
   AR                    8.98283              22.22648              20.15311
   AR                   78.26408              13.09786              19.80748
   AR                   56.26056               9.13806              18.29741
   AR                   85.08089               0.75536              41.61132
   AR                   69.93171              35.31694              23.30395
   AR                   74.50103              33.42987              10.00040
   AR                   26.56635              25.45544              14.10504
   AR                   54.50678              24.17883              44.63554
   AR                   17.01380               2.32671              17.12284
   AR                   57.07891              19.37236              37.61094
   AR                   55.38946              19.75958              45.07384
   AR                   90.53350              36.32816              43.11624
   AR                   65.62122               2.08033              40.10280
   AR                  100.65734              34.81727              43.58152
   AR                   57.55392              27.71422              12.69269
   AR                   28.83626              10.89458              30.94125
   AR                   51.07449              54.92602              13.57805
   AR                   83.51167               0.25294              28.58351
   AR                  103.40068              10.03845              21.93149
   AR                   84.38299              19.29988              47.32733
   AR                   52.22485              45.42164              26.27890
   AR                  104.65928              17.31453              42.13920
   AR                   77.18362               4.82124              22.49446
   AR                   53.52609              40.19012               8.84443
   AR                   11.93209              25.42264              24.42578
   AR                    5.56833              30.02200              22.57326
   AR                   80.37954              50.97486              55.18687
   AR                   54.27291              41.24631              55.26097
   AR                   76.68531               0.50738              22.89355
   AR                   75.50473              33.52258              42.62450
   AR                  101.86973              10.19930               2.82879
   AR                   95.49205              54.17351               3.81832
   AR                   59.47442               7.20583              19.32709
   AR                   80.39027              19.50706              41.76330
   AR                   70.66025               6.69096              18.73279
   AR                  100.40117              33.24409              31.88257
