       301
            33.63755            65.07032
   AR                   72.07446              63.41133              62.70953
   AR                   61.92547              42.06792              40.11656
   AR                   80.55172              20.45461               6.73097
   AR                    0.53622               0.41047              19.24595
   AR                    2.05162               2.41854              30.91704
   AR                   12.90643              11.82561               4.99473
   AR                   84.42266              25.10896              14.46021
   AR                   32.50622              30.75662              27.08027
   AR                   80.76117               4.74070              45.52145
   AR                   78.05003              31.86811              62.82517
   AR                   62.46286               3.81579              59.10545
   AR                   95.61868               3.05544              59.57128
   AR                   79.25091               6.56423              20.39136
   AR                   54.02066              41.13005              38.96023
   AR                   61.13031              61.03042               3.36178
   AR                   70.25989              48.99447              18.87477
   AR                   54.74753              14.08583              27.34999
   AR                   57.72701              59.49446               7.05777
   AR                   83.74608              19.00419              41.15073
   AR                   55.33047              10.70346              28.41265
   AR                   62.79190              23.01945              37.91996
   AR                   97.80403              43.54559              14.52241
   AR                   88.40623              38.52051              53.63962
   AR                   57.90901              33.70920              37.83343
   AR                   82.98324              60.91994              22.04740
   AR                   62.41887              24.32925              26.66710
   AR                   68.51027              31.95207               1.73602
   AR                   86.97186               3.16991              24.21323
   AR                   12.18168              20.28280               8.85930
   AR                   20.89432               9.39925               3.48670
   AR                   88.96614              13.42431              17.38983
   AR                  112.88478              59.23279              58.09045
   AR                   97.81044              11.81637              63.73502
   AR                   70.86608              23.57481              52.01882
   AR                   85.28667              64.74433              56.73915
   AR                  105.49508              52.25618              13.55194
   AR                   18.01388               5.49359               6.75174
   AR                   70.98816              18.45100              42.49473
   AR                  111.26328              59.72433              45.68108
   AR                   88.51281              50.24631              36.33950
   AR                   82.39159              30.76644              32.73461
   AR                  107.33130              60.06705              10.34655
   AR                   89.19518              61.68045              21.00179
   AR                  100.76634              52.82771              53.44572
   AR                   98.84012              35.90420              14.54747
   AR                  109.40380              52.63099              44.83475
   AR                   91.17434              18.89592              47.74020
   AR                   98.40254               9.08032              28.53146
   AR                   91.82629              58.40158              52.58775
   AR                  103.17876               7.84540              19.39133
   AR                   67.22274              11.05649              62.58949
   AR                   13.37267              12.09672              13.55942
   AR                   91.80162               7.08243              11.95735
   AR                   94.42060              32.61869              24.15624
   AR                  100.40711              41.57121              42.55435
   AR                   96.88028              55.46693              56.34789
   AR                   86.21868              35.50770              31.02329
   AR                    1.73611               8.57408              32.33334
   AR                   83.72711              27.65225              30.07559
   AR                   79.79316              57.87767              18.60303
   AR                  110.00337              22.45926              55.19591
   AR                  105.31187              31.64138              25.40868
   AR                   90.44659              38.43100              50.87590
   AR                  107.19945              21.10925              13.59718
   AR                   14.31638               6.13898              19.09766
   AR                   75.06483              48.45657               5.23271
   AR                   17.63705              11.86679              14.12851
   AR                   75.24464              41.09811              11.21878
   AR                   95.29584              46.81209               3.87421 FRACTIONAL
   AR                   73.43075              41.72255              35.97578
   AR                   65.34313              64.70933              42.37694
   AR                   58.36638              38.56212              19.26054
   AR                   50.52280              64.37509              60.58089
   AR                   65.66196               0.87589              39.23939
   AR                   67.57699               3.97886              14.65704
   AR                   57.91194               7.62960              45.84845
   AR                   23.55978              32.27621              10.95279
   AR                  110.27151              40.38608               0.54004
   AR                    4.78229               7.64921              12.02009
   AR                   89.50417              49.40205              50.36412
   AR                   84.54406               4.14595               5.58575
   AR                   55.70717              64.11225              34.36210
   AR                   54.97226              49.05391              57.65398
   AR                    5.45972              25.37619               6.46466
   AR                  110.47981              53.66533              36.86142
   AR                   71.40426              46.59264               6.81863
   AR                    4.62571              29.43385               6.84604
   AR                   95.58804              34.71924              16.36077
   AR                  104.47504              27.29076              21.53797
   AR                  112.28116              43.76667               0.57442
   AR                   97.66965              17.86199              44.91130
   AR                  108.33825              46.86979               3.01681
   AR                   86.55662              27.08767               2.05698
   AR                   58.51010              54.41380              27.30508
   AR                  115.08395              19.98034              28.71189
   AR                  107.92474              10.88471              25.05441
   AR                   67.37293              28.15274              50.35213
   AR                  112.15024              18.88935              35.23822
   AR                   87.23298               7.03449              13.83236
   AR                  107.21531              40.40474               5.47730
   AR                   96.19094              60.65450               8.57975
   AR                   84.84439              56.81530              15.44561
   AR                   58.75430              46.17721              34.17086
   AR                   75.15024               2.81241               7.13909
   AR                   55.63181              64.87915               7.24430
   AR                   67.52957              44.57947              39.37679
   AR                   62.41828              56.94094              26.31632
   AR                   64.56388              16.36879              52.37905
   AR                    6.70749              30.54297              20.77948
   AR                  114.91741               4.30971              38.37418
   AR                   81.81560              46.61284              30.44499
   AR                    7.65060               2.48129              30.36352
   AR                   72.86410              52.27128              22.40539
   AR                   25.39278              26.43068              17.08016
   AR                   84.91105               2.95082              12.09303
   AR                   50.69565              17.07484              36.19168
   AR                   83.69831              20.32619              35.92811
   AR                  110.03690               5.25961               6.59528
   AR                   68.44693               5.03953              57.04510
   AR                  113.92054               2.15919               6.97641
   AR                  109.21640              60.99506              62.69200
   AR                   83.38544              39.86598              29.59455
   AR                   17.85239              29.57993              15.23185
   AR                   93.39641               9.13961              58.83431
   AR                   85.37620              21.82489              18.66601
   AR                  100.65868               1.48271              55.92920
   AR                   82.11949               4.26518              27.19396
   AR                   90.14090              12.45231               2.10044
   AR                  111.56551              33.36452              43.79385
   AR                  105.79704               3.32231               3.06306
   AR                   73.75954              54.50241              19.20269
   AR                   63.49626              14.92112              40.50154
   AR                   55.14899              60.51603              62.43424
   AR                   54.14367              15.27924              24.33168
   AR                   99.50276               7.79704              24.79270
   AR                   59.13178              28.79099              22.21898
   AR                   69.27841              25.90369               2.94954
   AR                   74.76916              27.86963              61.77499
   AR                   88.49034              48.51023              56.37638
   AR                  115.41947               9.58751              58.76970
   AR                   20.64689              19.18490              25.63352
   AR                   75.17710              51.65069              29.35048
   AR                  113.25785              38.93586               7.93891
   AR                   64.99671              11.99783              60.03821
   AR                   98.95903              49.06342              49.63846
   AR                   57.78037              53.52585              63.37393
   AR                   68.00579              27.31444               8.45154
   AR                   57.88243              27.89982               2.79086
   AR                  109.91340               5.19091              51.60416
   AR                   22.85150              29.33241              30.57781
   AR                  114.21842              63.84729              49.15155
   AR                   99.68516              14.33626              17.69616
   AR                   61.75342              50.65780               4.63305
   AR                   93.15250              39.84096              31.54562
   AR                   60.95801              12.56990              24.74934
   AR                   16.09838               9.51837              18.49669
   AR                    6.35023              22.23303              25.22743
   AR                  110.75961              20.82295               3.13103
   AR                   15.10076              29.10664              29.38911
   AR                    2.64912               9.14022              14.76531
   AR                  109.06149              32.27048              26.08360
   AR                   17.25635              21.18479               8.36969
   AR                   73.64923              17.58868              50.93212
   AR                   53.97305               5.54872              10.65958
   AR                  107.20529              57.43725              14.06138
   AR                   51.16084              58.03174              28.78360
   AR                   70.86415               3.36573               6.76124
   AR                  104.19712              52.47900              53.53945
   AR                   85.28028              60.25207               6.50120
   AR                   64.86338              51.90656              56.23688
   AR                   33.58101              12.16134               6.58118
   AR                    0.42147              32.56808              22.36295
   AR                   92.16510              22.09880               9.35712
   AR                   69.40754              41.38249              16.42605
   AR                   59.11540               8.17735              16.13941
   AR                   21.30408               2.38733              12.64833
   AR                   63.74690              64.13000              19.26407
   AR                  113.00936              55.38762              54.47417
   AR                  108.47218              10.27452              55.51815
   AR                   86.71408              54.03716              60.44555
   AR                   29.72562              17.24773              23.48754
   AR                   75.01750               7.60905              45.75042
   AR                   71.16500              15.90534              59.37246
   AR                   94.74432              61.90724              23.22854
   AR                  101.29243              49.58207              16.86978
   AR                   99.79143              19.08627              20.94884
   AR                  110.33531              49.72171              62.93703
   AR                  107.69359              22.00910               7.27741
   AR                   73.95424              20.80078              25.05739
   AR                    8.97864              11.53638               4.87869
   AR                   28.63018              19.04348              20.66836
   AR                   17.47192               7.60370              27.12313
   AR                   71.37546              10.70662              51.78315
   AR                   84.40862               9.74660               1.85494
   AR                   61.49952              19.24383              22.13182
   AR                   77.33877              35.47346              40.45378
   AR                  103.12236              64.33575              19.80136
   AR                   71.33716              39.93754              14.35606
   AR                  105.25048               5.51672              52.75126
   AR                  105.30289              12.61984              29.73283
   AR                   80.29038              20.68453              19.41023
   AR                   90.39212               0.34239               5.45880
   AR                   53.66921              51.01153              43.41430
   AR                   78.95372              46.75615               2.93175
   AR                   77.74625               1.75728              11.12515
   AR                   54.31795              16.74580              33.56598
   AR                  104.88999              17.44970              27.34811
   AR                  106.77930              28.54209              60.77534
   AR                   76.88266               5.49526               6.00421
   AR                  103.70359              58.90953               7.98878
   AR                   22.44670              12.04649              13.94225
   AR                   87.47858              44.09294              56.37425
   AR                   67.48471              45.10077              23.06606
   AR                   54.83483              49.50814              50.16338
   AR                   64.77775               9.41883              22.16495
   AR                   64.19347              29.82527               4.88720
   AR                   58.55694              58.18387              38.82615
   AR                   81.47569              64.26703              41.17604
   AR                   80.11015               0.38988               3.10939
   AR                  111.43973              52.62444              30.24996
   AR                   20.14592              14.75022              13.83657
   AR                   24.91253              30.84300              25.56069
   AR                   98.37767              37.77739               8.59962
   AR                   50.67351              20.85339              42.20953
   AR                  111.39654              62.67095               9.90505
   AR                   74.29506              59.56611              55.80307
   AR                   76.86526              64.01004              52.51994
   AR                   66.79164              18.70598              26.32936
   AR                   17.67164               0.45859              16.58214
   AR                   20.02607              32.47764               5.65308
   AR                   74.21640              14.94166              59.47645
   AR                  113.88144              52.58258              42.60690
   AR                   57.44429              51.57207              22.10542
   AR                   82.41429               4.30174              21.65745
   AR                   63.17322               9.50025              52.05152
   AR                   90.26310              60.29920              35.04255
   AR                   98.13730              23.28300              31.19833
   AR                  106.04852              41.58835              63.83278
   AR                   28.56724              31.64791              15.27871
   AR                  108.94095              64.67979              12.57765
   AR                    5.45010               3.38630              33.52599
   AR                   68.15730              52.09173              20.55593
   AR                   73.37695              36.67508               9.56506
   AR                   83.26277              48.20711               4.17920
   AR                   58.72903              15.51121              25.46458
   AR                   64.21395              46.60454               8.99208
   AR                   15.70988              32.77535              27.11270
   AR                   15.10974              13.12420              25.68235
   AR                   18.49827              15.82122              26.92621
   AR                   84.92143              64.75057               9.27778
   AR                   88.10289              27.22735               5.72634
   AR                   82.02768              28.65225              14.03617
   AR                   56.47074               5.21619              26.36403
   AR                   31.54667               1.68638               5.94000
   AR                   80.59412              35.90322              53.79536
   AR                   91.16186              11.10216               7.96927
   AR                   90.91882              30.26224               0.06692
   AR                   97.08273               9.24220              58.80769
   AR                   28.89013              11.41858              10.01035
   AR                   61.16543              50.05008              34.62215
   AR                   77.43144              55.61467              27.43776
   AR                   99.66579              42.41700              53.55681
   AR                  112.29533              58.21844              42.79483
   AR                   83.22558              60.42776              32.94794
   AR                  100.47947               3.40655              17.51251
   AR                   95.89574              55.62981              47.27421
   AR                   55.52540               8.89314              33.36465
   AR                   74.81542              13.33947              56.19148
   AR                   74.28572              63.19885              17.90028
   AR                   73.40870              29.44767              55.29431
   AR                  113.05428              28.82053              64.43548
   AR                  111.18371              50.03613              43.01321
   AR                   97.60139              34.19907              34.75273
   AR                   12.49299              30.87177              24.57978
   AR                   32.65395               5.13551              32.53294
   AR                   61.02053              52.40878              37.99874
   AR                   92.57522              56.53119              38.99438
   AR                   65.53778              12.66792              49.20397
   AR                   94.64579               1.56383              51.26086
   AR                   75.89556              63.94711              48.64287
   AR                  104.07871              55.17741              20.59087
   AR                   65.67935               7.90501              63.17815
   AR                   11.15945              17.93157              19.13404
   AR                   68.56441              10.46605              25.61095
   AR                   10.46325              14.57127              20.29453
   AR                  105.62856              53.10946               9.15466
   AR                   13.10454               2.77812              27.57350
   AR                   62.19132              53.02535              29.13327
   AR                   93.51963              35.89730              31.67989
   AR                   56.32670              15.28160               4.46088
   AR                   57.22405              39.37703              42.97620
   AR                   12.20575               8.70811              17.81277
   AR                   52.77578              55.89203              33.98999
   AR                   80.48614              54.99602              49.64046
   AR                   85.49760              46.32337              61.39814
   AR                   69.79659              35.49952               8.55979
   AR                  100.91066               9.72750              15.32340
   AR                    8.45651              31.47537              23.89510
   AR                  110.91163              26.06653              55.72651
   AR                  104.22999               3.06082              26.32885
   AR                   81.36941              30.14208              25.59518
