       206
            31.77420            78.15138
   AR                  117.29047              35.21812              16.30583
   AR                   62.81772              50.07750              39.96865
   AR                   55.59718               9.84365              10.76031
   AR                   54.96288              29.04112               2.91174
   AR                  112.76736              30.30175              23.59603
   AR                  119.74009              40.02573              70.17488
   AR                   95.28663              37.73540              25.06019
   AR                  124.63071               4.14117              14.19942
   AR                   99.23159              21.46978              25.71719
   AR                   94.24386              52.21701              43.23331
   AR                   68.49585              77.11662              62.65961
   AR                   92.63102              46.29368              56.18192
   AR                   65.23331              24.97217              68.00594
   AR                   73.24258              27.85986              40.14454
   AR                  105.12934              33.96750              28.98793
   AR                   51.39634               3.58045              22.07242
   AR                   85.73406              77.70042              65.67700
   AR                   78.65690              37.63055              52.15733
   AR                   57.56141              18.47689              70.89845
   AR                   94.46415              60.46377              25.39480
   AR                   96.81146              41.35229              10.70013
   AR                   28.36342              25.98679              15.20891
   AR                  108.31384              71.67887               4.08805
   AR                   85.42000              67.60176              57.03544
   AR                   87.64189               2.77317               5.68318
   AR                   86.33968              59.99586              69.12507
   AR                   79.04440              75.54842              76.72346
   AR                   80.50842              44.66866              18.94524
   AR                   74.60003              47.80948              39.35910
   AR                  100.31281              32.44884              25.89984
   AR                  116.13883              69.65085              10.68176
   AR                  120.15624              51.02127              26.63460
   AR                   70.81506               8.56686              28.83084
   AR                  118.40129              34.07472              12.64193
   AR                   93.08169               4.61361              72.44043
   AR                   18.75543               4.23127               9.95425
   AR                  125.08892              65.59920              44.97034
   AR                   79.59944              51.43323               1.23722
   AR                  113.34931              40.86539              15.87377
   AR                  112.07585               0.85299               4.24571
   AR                   27.23859              14.96101              29.86177
   AR                   10.25985              27.74419               2.85228
   AR                   57.91467              56.37594              75.60352
   AR                   93.03612              68.52716              37.17515
   AR                   63.96008              20.64561              63.79046
   AR                  117.36463              66.85321              51.64988
   AR                   94.43348               9.79911              29.01046
   AR                   47.91240              77.91575               5.52854
   AR                   89.98156              76.90783              34.45838
   AR                   97.15348              17.91548              24.90348
   AR                   98.66944              50.07662              55.70093
   AR                   88.75166              35.55599              15.71771
   AR                    6.73047              31.64322              17.29941
   AR                   31.74244               5.33555              29.22460
   AR                   58.17493              61.56285              23.13665
   AR                  106.75029              35.87849               5.13655
   AR                  124.35875              13.96454              75.18690
   AR                   54.94349              15.50072              42.13387
   AR                  117.03140              43.79151              40.71096
   AR                  103.79795              56.84673              36.69613
   AR                   63.63861              46.57313              50.77721
   AR                   74.40759              13.20197              47.42233
   AR                   82.78532              30.34977              25.53967
   AR                   97.12372              38.54436              18.94440
   AR                   95.91188              31.74948              48.11752
   AR                   50.73987              74.75435              36.15826
   AR                   23.60359               8.17271              12.96659
   AR                   60.02849              33.52559              59.83796
   AR                  106.55095              75.53012              46.60524
   AR                  115.88815              36.14721              50.09419
   AR                  119.78943              50.04704              61.32974
   AR                   82.62721              51.27533              60.68926
   AR                   60.84016               8.38911              55.47173
   AR                   85.82525              24.94388              62.94741
   AR                   93.12347              24.82601              18.42538
   AR                   49.08533              76.96386              30.99706
   AR                  102.37404              75.94176              76.88932
   AR                   49.39086              10.88127              10.45376
   AR                  121.96505              45.04851              71.14184
   AR                   89.64884              53.10991              42.87966
   AR                  114.75656              54.83786              77.43100
   AR                   77.68054              68.03539              18.46649
   AR                   13.04039               7.04059              29.55971 FRACTIONAL
   AR                   87.99122              27.53243              70.66972
   AR                  106.64741              76.47037              10.52666
   AR                  100.98910              37.41491               8.12145
   AR                   92.17120              49.84552              24.75031
   AR                  107.91069              73.73459              73.75846
   AR                   78.35566              38.82733              48.11907
   AR                   59.50533              53.93755              60.83934
   AR                   14.57394              17.12505              13.22941
   AR                   69.18663              60.98002              36.24606
   AR                   76.17093              34.86014              57.43864
   AR                   59.83925               6.43727               6.99347
   AR                   86.12161              38.84747              69.65939
   AR                   55.26644              78.13563              66.55949
   AR                    8.95384              30.33626              14.60832
   AR                   59.46160              62.89907              26.63445
   AR                  118.38753              63.91556              22.82314
   AR                   98.14098              76.98954              21.09673
   AR                  124.15885              69.77544              21.87006
   AR                   77.08952              17.43317              50.47270
   AR                   66.38971              76.02293               1.21382
   AR                  117.29640              33.33373              43.76003
   AR                  120.25535              64.28762              13.59423
   AR                   63.65733              70.50135              17.84856
   AR                  109.75049              33.47997              20.59948
   AR                  112.31383              38.32084              19.80329
   AR                   88.07732               9.44319              40.47688
   AR                   59.89120              23.82552               8.48583
   AR                   56.83000              23.84197               6.97203
   AR                   66.75161              37.20464              42.20260
   AR                   93.58642              14.38344              43.10138
   AR                   60.38847               0.65902              55.70853
   AR                   92.61286              42.81311              26.34394
   AR                   71.31699              46.96303              53.56130
   AR                   53.92042              76.88714               7.92872
   AR                   91.26815              48.12125              30.32334
   AR                   75.57797              16.11403              34.29942
   AR                  105.29530              48.19558               2.22772
   AR                   75.63271              40.02298              76.77533
   AR                   75.04513              56.59059              50.03127
   AR                   64.07547              54.25471              65.72813
   AR                   98.21921              56.61888              26.63848
   AR                   59.15349              14.50628              50.18617
   AR                    2.36850              20.56133              18.90293
   AR                   81.49164               9.11471              59.45497
   AR                   10.28759               1.42656              17.87592
   AR                  106.34042               7.84307              71.26757
   AR                  102.65946              10.42878              63.42018
   AR                  114.68249              66.89813              36.18349
   AR                  107.67675              32.38721              15.45406
   AR                  121.36818              51.87187               6.02737
   AR                   91.76278              36.67253              34.82991
   AR                   60.28680              24.93992              74.27377
   AR                   69.92736              30.21337              16.75267
   AR                   52.57957              25.53090              18.12016
   AR                   84.88038              52.74912              62.59171
   AR                   84.76043              66.20412              34.31461
   AR                   71.27567              36.09897              63.05596
   AR                   29.80258              20.99225              27.46865
   AR                  121.07347              32.16499              55.05367
   AR                   88.09333              50.17989               2.63935
   AR                   62.22208              65.25181              46.25328
   AR                  111.84514               3.08282              42.22945
   AR                   71.93785              43.00491              35.37379
   AR                    3.63828               5.13994              25.80995
   AR                  124.92329              76.53713              46.40485
   AR                   64.61039              34.24565              30.68164
   AR                   64.57576              69.62174              21.57946
   AR                   78.72170              75.39706              33.03714
   AR                  114.35641              62.21265              39.50634
   AR                  102.19468              32.58756              51.55552
   AR                   47.98630              67.52362              18.67846
   AR                   75.40925              35.87025               2.45201
   AR                   64.53535               9.38560               2.86328
   AR                   62.07267              62.35259              47.66607
   AR                   87.17840              70.85486              57.83542
   AR                  115.67669              29.84722              36.77812
   AR                   52.71495              15.68583              76.61750
   AR                  102.39694              22.05324              24.13678
   AR                  123.60907              34.66274              42.35355
   AR                   99.87809               2.15519              57.31821
   AR                  111.04754              18.81996              53.37197
   AR                  102.56400              52.80274              17.15562
   AR                   80.82621              46.22231              55.77852
   AR                  123.26471              74.84888              56.99595
   AR                   68.10884               6.23580              50.70249
   AR                   57.57368              69.49810              17.38640
   AR                  112.09237              55.39610              37.39167
   AR                   16.35883               6.99168               3.65915
   AR                  109.61362              77.89305               6.74536
   AR                   51.16681              38.70644              30.46228
   AR                   54.13883               0.30726              17.24000
   AR                  104.10526              26.21250              54.78475
   AR                   85.50075              47.08071              56.37700
   AR                   29.98898              28.76850               7.99201
   AR                   82.64681              24.54363              27.20552
   AR                   73.80570              71.90109              76.64967
   AR                   97.40416               8.74193              26.30528
   AR                   97.84180              45.72166              48.38221
   AR                   58.52412               9.57119               9.03220
   AR                   48.90403              19.04101              76.06505
   AR                   79.45737              18.86814              41.64149
   AR                   99.84714              27.67842              71.64446
   AR                   58.58091              67.14894              45.71800
   AR                   51.37604              30.02172              43.47718
   AR                   49.12476              67.70380              28.21599
   AR                   48.02547              24.22650              36.01028
   AR                   79.67672              67.69628              71.51070
   AR                  113.01914              59.20055              33.17292
   AR                   68.32514              76.18887              70.12205
   AR                   90.53830              57.89615              71.45768
   AR                   72.05670              35.93767              35.22707
   AR                   96.64069              37.02849              31.76707
   AR                   61.71531              32.07074              33.85262
   AR                   86.82805              52.11187              38.93517
   AR                  124.19378               7.18059              34.20586
   AR                  102.44384              30.70695              72.55444
   AR                  124.02541              25.08009              41.85816
   AR                   79.90919              45.42391               2.38535
   AR                   70.37337              26.81497              38.29756
   AR                   60.86723              19.61017              71.55736
   AR                  122.06518              34.24254               9.53173
   AR                   51.74736              75.17120              70.07019
   AR                   73.67239              36.16157              73.14249
