       321
            33.42291            57.77795
   AR                   60.79985              18.87098              40.45526
   AR                   85.01847               3.62553              43.37413
   AR                   74.89625              19.22657               3.50891
   AR                   75.74929              43.09828              40.14805
   AR                   80.46870              36.24824              33.26182
   AR                   54.63566              53.79375               6.30031
   AR                   56.12368              57.14709              18.88166
   AR                   14.26671              22.38040              25.24196
   AR                   66.57709              56.43558              25.90286
   AR                   61.07480              22.29339              21.48653
   AR                   57.76372              35.20340               6.73376
   AR                   64.23757              38.64474              26.99496
   AR                   58.42165               0.14925              26.18530
   AR                  103.91887              21.21954               5.06229
   AR                   86.16069              48.35372              33.73272
   AR                   88.67752              17.63712              34.26408
   AR                   75.96648              53.74331              14.06838
   AR                   93.31864              13.28714              43.23817
   AR                   15.35512              20.92893              16.21581
   AR                   75.44235               3.83754              47.03054
   AR                   18.11883               3.35078               8.45382
   AR                   76.49908              24.31858              53.21212
   AR                   65.50824              26.64997              23.37881
   AR                   99.98475               5.80893              44.91161
   AR                   63.20486               5.40591              14.09663
   AR                   18.43837              20.20495              13.81206
   AR                   69.86721              16.96601              53.18395
   AR                   52.39059              23.28924              37.78641
   AR                  101.04192              18.56727               9.03514
   AR                   67.84701               2.45046              18.34914
   AR                   15.90955              13.22619               5.02191
   AR                   59.16535               1.17272               9.49275
   AR                   65.65881              41.15621               8.76063
   AR                  106.30636               9.33875              52.61296
   AR                   80.06338              14.44047              54.90371
   AR                   71.34094              28.04251              46.21426
   AR                   62.16376              36.09087              28.09744
   AR                   84.55222              32.32715              51.94947
   AR                   57.42184              17.72227              22.01237
   AR                   93.08379              11.62570              19.80791
   AR                  103.36512              46.50328              40.99109
   AR                   59.79584               6.73004               9.09095
   AR                    6.74843               6.00049               9.31244
   AR                   89.64912              54.70262              11.99877
   AR                   19.10899              33.41539               6.49061
   AR                   91.37643              45.98708              56.14142
   AR                   73.92134              24.62140               7.68271
   AR                   23.69276               5.56329               0.14421
   AR                   88.32849              39.67534              53.12635
   AR                   91.77945              31.76586              37.72353
   AR                   69.30949              18.70620              29.09422
   AR                   15.14403              19.51103              29.81562
   AR                   53.25451              55.48135              38.39286
   AR                   12.02733              33.37569               5.85933
   AR                   15.54304              30.61590               3.07954
   AR                   89.07595               2.04952              35.61004
   AR                   50.61641              38.01504              49.50880
   AR                   61.34003              35.70157              23.81152
   AR                   75.58072              56.67990              15.26124
   AR                   90.40362               8.02014              28.70508
   AR                   28.23950               3.60666              14.41300
   AR                   73.06513              32.58583              55.88431
   AR                   66.83319               3.61101              39.16286
   AR                   88.83116              24.74854              16.14834
   AR                   68.51677              33.86680              11.81285
   AR                   56.75884              49.25373              26.07154
   AR                   62.36297              51.18747              19.21399
   AR                   56.49428              31.86604              54.72343
   AR                   63.31895              23.87337              41.78257
   AR                   95.64487              41.44788              37.40707
   AR                   64.57196              19.88537              33.70831
   AR                   33.25492               6.65119              22.63999
   AR                   52.33944              17.44715              24.59084
   AR                  101.01926              54.84200              31.12227
   AR                  104.69338              43.89486              37.52393
   AR                   58.54387              31.19977              45.39374
   AR                   68.39560              33.17741              28.30366
   AR                   99.04619              42.04278              25.19848
   AR                   78.62014              25.81356              37.33871
   AR                   32.13202              32.75732              21.31976
   AR                   13.20964              15.21501               3.35861
   AR                  101.45024              44.00108              46.87623
   AR                   94.11570               8.14359              26.63523
   AR                    1.07894              27.05598              28.14181
   AR                   78.03423              50.03693              40.73637
   AR                    7.06933              30.89316              13.53572
   AR                   89.42751              15.32638              19.24377
   AR                   76.40184              29.51448              47.55426
   AR                   77.02303              40.25955              45.27657
   AR                   92.58001              43.96902              32.27763
   AR                   89.51751               1.36236               0.87355
   AR                  107.12544              31.42192              41.77115
   AR                  103.28840               8.22369               3.31338
   AR                   63.99083              16.12339              13.53436
   AR                   59.19738               1.40243              22.79543
   AR                   59.08673              34.05107              38.68178
   AR                   94.36530              53.51771              29.52194
   AR                    1.61888              25.07092               9.16812
   AR                   10.20775              31.15635              14.74618
   AR                   80.11634              51.50776              27.14933
   AR                   80.73757               6.44546              55.12714
   AR                   51.35426              45.71550              24.86628
   AR                   56.65338               9.07788              35.33668
   AR                   92.97922              39.18643              29.38048
   AR                   80.26653               2.26591               0.03684
   AR                   59.42754              57.62152              49.96278
   AR                   94.63946              44.85282              37.55805
   AR                   81.13097              37.49787               2.74776
   AR                  104.90487              45.62784              26.00062
   AR                   90.00924              24.15785              23.16914
   AR                   67.80025               1.92580               6.12107
   AR                   71.70374               0.31058              26.03739
   AR                   67.43854              19.83994              53.79113
   AR                   57.42107              44.07550              24.54177 FRACTIONAL
   AR                   90.64823              22.83664               3.45560
   AR                    2.99490              19.52120              10.23816
   AR                   76.82174              49.04185              36.57975
   AR                  104.96506              56.52999              44.73731
   AR                   94.23461              16.44802              28.70625
   AR                   90.69480              17.61073              57.63960
   AR                   79.67802               3.91729              46.75275
   AR                   83.46323              39.95008              43.50692
   AR                   54.54730               3.86691              10.53037
   AR                    2.76889              12.30169               9.01589
   AR                   87.20393              13.03552              32.64600
   AR                  100.40309              23.42378              17.96257
   AR                    6.32971              20.36781              26.51212
   AR                  106.33990              53.08561              17.60552
   AR                   97.31236              31.56055              10.41238
   AR                   97.85651               5.66976              16.02864
   AR                   54.25833              29.65296              45.77846
   AR                   89.58665              56.49743              26.71055
   AR                   94.90609              44.50647              28.91911
   AR                   56.65739              18.95877              17.84960
   AR                   95.47395               8.16302              32.48742
   AR                   68.28218              42.76346              29.80119
   AR                  107.24070              46.73374              42.63095
   AR                  103.12623              46.09120              14.94667
   AR                   54.89393               6.17355               2.10594
   AR                   56.29249              48.19676              18.01559
   AR                   27.31363              15.55674              22.13428
   AR                   32.95093               4.29753               8.81177
   AR                   57.05608              37.91241              15.28170
   AR                   93.27380              47.21778              22.78702
   AR                   56.24456               3.16235              47.00432
   AR                   81.91096              46.80967              14.46101
   AR                   88.88579              17.37951               4.94231
   AR                   76.50973              40.37804              33.66049
   AR                    0.91261              29.03791               9.38477
   AR                   91.43864              10.43499              41.02501
   AR                  105.78454              42.22461              24.16792
   AR                  105.34066              38.00999              38.38400
   AR                  104.59046               4.63765              14.50061
   AR                   96.48738              55.36985              24.10893
   AR                  102.76701               2.12336              25.34938
   AR                   99.60422              28.66580               2.65446
   AR                   74.34405              52.88432              51.03805
   AR                   61.97402              30.12146              26.51802
   AR                   81.52205              15.28326               2.76920
   AR                   66.03489              29.04036              35.98379
   AR                  102.26427              40.22169              36.77516
   AR                   99.45102              49.46504              24.40269
   AR                   20.11873              21.82056              29.17146
   AR                   90.57978              36.00169              16.10760
   AR                   56.55678              55.95631               8.38027
   AR                   87.04576              54.64537              38.75027
   AR                   90.01087              41.96200              44.54102
   AR                   11.31380              25.40120               8.71206
   AR                   91.91343              41.21021              34.33996
   AR                   79.90739              21.47032              28.05697
   AR                   96.42614              51.11252              50.07380
   AR                   97.62050              55.70052              45.93183
   AR                  105.94485              48.04434              48.39219
   AR                   50.71648               3.65431              41.82195
   AR                   55.04546              41.48152              51.23308
   AR                   58.36441              34.36799              13.34597
   AR                   21.09166              21.73395              15.69942
   AR                  100.30369               1.93460              32.25962
   AR                    3.48860              10.43369              14.62815
   AR                   93.94042              28.90043              45.40302
   AR                   85.86126              30.65211               2.50761
   AR                   53.54410              33.61915              30.70526
   AR                   27.35037              12.89045              15.35517
   AR                   52.46227              18.94016              17.05035
   AR                  101.38618              26.71372               8.07653
   AR                   92.41793              16.64252              51.10322
   AR                   66.44066               5.78444              36.22864
   AR                   54.78784              37.97440              26.33028
   AR                  101.53241              48.26668              36.34706
   AR                   93.37209              11.34287              55.17925
   AR                   95.01775              36.97097               7.10344
   AR                   53.24047               7.98728              54.20949
   AR                   98.42516               2.92497              54.15158
   AR                  106.13745               0.65878               7.07321
   AR                  107.18074               4.67099               1.92221
   AR                   75.85180              13.73232              53.65398
   AR                   10.94444              19.27232              13.52121
   AR                   65.47319              50.67079               7.33299
   AR                    8.79963              18.48978               2.17470
   AR                   74.49227              32.18748              48.89185
   AR                    4.50938               8.55829               3.29492
   AR                   72.39684              42.27919              20.54718
   AR                   53.76255              13.36299              51.65837
   AR                   55.86138              51.27028              39.26944
   AR                   75.78688              40.18952              38.19192
   AR                   77.32722              53.14685              51.12749
   AR                   92.76564               1.14318              36.26566
   AR                   23.90723              14.65152              25.47150
   AR                   51.30471              19.90900              36.57050
   AR                   68.19476               5.15628              31.76732
   AR                   80.48372              10.28396               3.34769
   AR                   79.54870              17.11958              36.90618
   AR                   60.69660              29.02403               2.07460
   AR                   12.47276               8.65813               6.37616
   AR                   69.21208              38.24444               5.47813
   AR                  101.67290              31.91948               2.07601
   AR                   93.29919              21.19092              38.03853
   AR                   74.19516               4.06882              32.84063
   AR                   98.82918              18.98053              51.85325
   AR                    5.43425              28.40475              15.63597
   AR                   54.13350              38.87119              54.03281
   AR                   82.57670              47.45855               2.31343
   AR                   12.32113               0.24389              23.62812
   AR                   62.98410               2.57799              45.50396
   AR                   90.47605              13.59753              10.48494
   AR                   57.16289              34.47600              22.70056
   AR                   93.61723              46.76394              26.66308
   AR                  104.60292              40.31742              41.57720
   AR                   83.05722              24.00119              31.99424
   AR                   51.39945              57.00368              29.51265
   AR                    3.25164              28.57223              19.12777
   AR                   98.84594              39.34508               5.87824
   AR                   10.51910              17.93676              10.51903
   AR                    2.84670               7.16926              15.46415
   AR                   70.46849              52.48230               0.51264
   AR                   26.09057               1.48578              32.78089
   AR                   65.44798              53.59092              53.65097
   AR                   75.58058              13.57803              50.25930
   AR                   54.72468               0.31201               4.17507
   AR                   60.14941              24.33455              37.15217
   AR                   51.67626               7.38974              41.01983
   AR                   85.08677              18.36403               3.75854
   AR                   58.29753              43.14575              20.33636
   AR                   20.64446              28.11704              12.65281
   AR                   59.73958              15.05896               2.45952
   AR                  100.40063               4.80620              36.19217
   AR                   93.74488              52.16601              16.56488
   AR                   94.53542              37.69155              52.59097
   AR                   72.48042              40.02714              22.89958
   AR                    9.60061              11.50641              28.68764
   AR                   98.80135              54.50666              21.28101
   AR                   85.77827              56.06328               8.97204
   AR                   85.50882              21.24493              40.79418
   AR                   95.69443               3.19799              22.50628
   AR                    3.65217               6.54944              19.02065
   AR                   84.00152              15.48770              47.35125
   AR                   57.98779              12.25188              22.17574
   AR                   81.98348              44.96819              43.78582
   AR                   63.15387              24.28218               3.20380
   AR                   80.96149              57.59215              43.37780
   AR                    6.62099              23.76911              28.51609
   AR                  100.71421              33.97079               7.03920
   AR                   99.89377              54.59401              53.33666
   AR                   31.07965               1.42688              23.95315
   AR                   28.09496               1.68757              19.80699
   AR                   87.04195              54.01983              53.24556
   AR                   21.62649               0.34314              32.84040
   AR                   86.03983              53.46738              16.67924
   AR                   24.25843              16.92291               8.01482
   AR                   59.46686              26.59532              56.54492
   AR                   78.44231              56.34189              29.47233
   AR                  104.50050              30.28809              11.12291
   AR                   88.03753              15.67267              41.37734
   AR                   91.35456               5.73988              16.57968
   AR                   60.89518               4.40282              20.92430
   AR                   75.58385               7.92088              19.51714
   AR                   52.94824              47.81331              35.00052
   AR                   20.14457              20.74915              10.51903
   AR                   79.01435              24.19192              11.31712
   AR                   97.30983              47.49065              31.00872
   AR                   29.77929               0.93466              11.43257
   AR                   58.60027              15.43071              39.84847
   AR                   56.40152              50.28698              45.02655
   AR                   91.35134              21.44950              48.44377
   AR                    8.83949              27.48047              13.91841
   AR                   60.14204              31.29599              15.47016
   AR                   68.64794              15.45392              13.46026
   AR                   61.38516              55.91101              39.63350
   AR                   68.19403              55.40858              41.27044
   AR                   79.33223               1.01404              50.70426
   AR                   67.45740              16.93753              16.75372
   AR                   12.25189               9.39020               1.66711
   AR                   97.31722              35.87422              57.40081
   AR                   98.14812              36.92276              51.30766
   AR                   93.61472              47.70616              34.66057
   AR                   95.25113               0.57089               3.44028
   AR                   89.51277              15.64140              48.96606
   AR                   75.23909              21.40884               7.43408
   AR                   71.07568              54.35974              52.92631
   AR                   19.80167              28.22651              18.43893
   AR                   72.61694              46.28433              38.02004
   AR                   27.23171              19.07815               2.75046
   AR                   98.09808              48.06440              43.22506
   AR                  100.78656              56.14270               1.97201
   AR                   12.41367              22.49485              22.52226
   AR                   68.45397              35.20385              51.73454
   AR                   67.16300              55.84140               6.74377
   AR                   70.87537              25.74126              39.76377
   AR                   52.49314              50.04682              43.03223
   AR                   71.87122              34.21190              13.04094
   AR                   86.34568               9.17825               9.97219
   AR                   96.00912              21.47423              53.37494
   AR                    7.68877              25.67356               7.68029
   AR                   17.15651              32.81625               0.06803
   AR                   69.64518              11.05495               3.70114
   AR                  106.48477              48.65909              11.78930
   AR                   26.59031              15.70814              18.04473
   AR                   67.02693              52.65373              48.22676
   AR                   72.41735               3.17363              44.80096
   AR                   82.92858              50.41170               7.21656
   AR                   72.36753              42.60437              55.76255
