       301
            34.84673            60.91522
   AR                  108.63735              34.06121              54.24309
   AR                   96.21755               4.93218              48.47813
   AR                  109.93134              20.12500               2.24919
   AR                   55.73555              56.38170              31.33935
   AR                   60.37880              52.48329               4.19100
   AR                  106.75784              34.85814              43.53628
   AR                   74.97854               5.23894               4.55744
   AR                   57.73423              31.32034              28.81821
   AR                  112.37588              19.52503              38.10641
   AR                   78.90573              22.01690              29.27934
   AR                   15.14413              12.94862              18.68830 FRACTIONAL
   AR                   24.72647               4.57985              30.46316
   AR                  104.60594              15.50448              19.55268
   AR                   62.75135              19.72405              20.59421
   AR                   96.72680              60.73132              39.63061
   AR                   56.04561              10.31165              47.42087
   AR                   78.66709               4.12047              32.93002
   AR                   82.69797              42.92935              58.93841
   AR                   94.32364              46.40041              52.53723
   AR                   96.81440              43.71897              19.07646
   AR                   86.21760              20.01375              55.97916
   AR                   89.74344               8.43696              18.36452
   AR                   88.23527              11.97522              44.08197
   AR                   71.58608              29.94736              40.07337
   AR                   80.99083               9.58917              60.45196
   AR                  100.09498              44.70094               5.26275
   AR                  112.35067              29.37077              52.72292
   AR                   85.11369              54.01874              51.29628
   AR                   85.35780              59.15095              57.49750
   AR                   64.42830              28.87649              58.52715
   AR                   96.38158              47.38472              22.76058
   AR                   17.31057              24.35274              20.45792
   AR                  104.28258               3.56776              44.52757
   AR                   98.83020              47.25995              46.31097
   AR                   79.24290              17.43812              34.41597
   AR                   18.83688              12.41429               9.15708
   AR                   65.31392              57.99327              37.32565
   AR                    2.91998              30.72208              27.36939
   AR                   61.96221              36.14792              31.48087
   AR                   34.38719               5.60616              27.40944
   AR                   59.76512              45.33728              53.16417
   AR                   84.62649              22.59533              24.91187
   AR                   72.29455               6.82218               8.05471
   AR                   97.38110              29.89261               0.24128
   AR                   84.86787              38.42161              42.94052
   AR                   64.99219              22.52811              42.63557
   AR                   97.55786              12.07636               8.66045
   AR                   98.48393              31.77578              15.68389
   AR                   69.50567              17.22017              50.44000
   AR                   91.49276              39.56626              36.27049
   AR                    4.51224              33.05894              21.38518
   AR                   10.93211              12.80318              20.47989
   AR                   55.94852              32.16031              34.51629
   AR                   75.21181               2.97881               2.05824
   AR                   63.09112              18.30638              33.06149
   AR                   74.52380               9.23989              40.97949
   AR                   77.05969              29.66772              17.42384
   AR                  112.00695              33.95689              40.04332
   AR                   60.65428              60.69430              11.69955
   AR                   56.32776              51.00923              38.01122
   AR                   66.52791              24.54722               2.89550
   AR                   90.38220              51.28436              13.08860
   AR                   64.50638              40.64263              33.50639
   AR                   80.27685              33.35618              35.15482
   AR                   69.57583              10.65377              31.39417
   AR                   60.06985              18.69373              45.10572
   AR                    6.33144               0.48655              30.68186
   AR                   72.94019               6.20399              24.00717
   AR                   95.52204               7.79652              44.43123
   AR                   73.98274              56.94331              57.00251
   AR                  101.41872              50.06874              40.66317
   AR                  100.15291              33.20737              53.91688
   AR                   25.08544              33.31495              18.08669
   AR                    5.67362              18.04514              10.64474
   AR                   77.47072               5.35980              18.52944
   AR                   24.18913              11.73553              31.63143
   AR                   53.12616              13.76845               5.77157
   AR                  111.71833               5.39947              58.33461
   AR                  100.56337              35.53812              56.32993
   AR                  111.15828               4.73486              23.50520
   AR                  107.05166              31.44702              27.93119
   AR                   64.33948              30.62238              14.78553
   AR                   56.96649              26.53030              58.39663
   AR                   99.22669              60.62049               7.20958
   AR                  109.04896              26.58986              60.10559
   AR                   33.20993              15.68768              14.82327
   AR                   31.24243              17.23951              23.12432
   AR                  104.33934              57.93206              50.58460
   AR                   59.98046              48.29038              20.21739
   AR                   72.83209              25.68629              17.46543
   AR                   76.93963              30.99123              42.79317
   AR                   53.40749              45.98757               4.48660
   AR                   30.41189              25.47673               2.95131
   AR                   65.04781              53.80906              32.65229
   AR                    5.76041               5.21941              30.53734
   AR                   22.43810              20.15827              18.79019
   AR                   70.07401              23.66084              20.48019
   AR                   53.56425              21.92852              34.12039
   AR                   79.01988               8.94147              25.74473
   AR                   27.77589              34.74059              14.69371
   AR                   60.41533              57.08063              40.13153
   AR                   93.48408              19.48261              48.08753
   AR                   74.06136              55.07704              10.20228
   AR                   92.25346              42.26969               0.31211
   AR                   19.22584               7.27241              26.79287
   AR                  113.00666              44.73838              54.61038
   AR                  106.20226              30.79797              21.27156
   AR                   84.51279              34.19706              27.76531
   AR                   93.77515              51.38520              54.43635
   AR                   96.29573              58.62483              33.10914
   AR                   69.04721              25.73129              40.92797
   AR                   75.36035               4.01517              42.90917
   AR                   79.52724              23.25244              32.92116
   AR                  108.67482              36.45882              20.56347
   AR                  105.58888              28.14657              11.00238
   AR                   15.69187               9.45881              33.17203
   AR                   15.13812               8.32460              19.58596
   AR                   81.08948              35.36652              26.12311
   AR                   54.06957              24.23321              28.34385
   AR                   26.93574              27.35394              10.43942
   AR                   58.80753               3.32905              31.70442
   AR                   87.52400               7.23082              60.89201
   AR                   58.99912              53.69219              54.82286
   AR                   86.91001              25.67939               3.66323
   AR                   60.71702               9.46037              50.58704
   AR                    4.35851               0.65368              18.86364
   AR                   93.16927               1.99207              10.77525
   AR                   17.52742              33.49233              17.74311
   AR                   57.84698              32.95692               2.51348
   AR                   57.79221              22.10999              45.77762
   AR                   73.35888              35.70980              33.10935
   AR                   87.28699              42.23849              53.82834
   AR                   63.81977               9.74931              47.77850
   AR                   91.08061               7.53096              11.92187
   AR                   77.59443              52.49762              19.25649
   AR                   29.11096              15.81047              20.35071
   AR                   92.71863              57.45034              21.21275
   AR                   59.46759              49.15270              43.74566
   AR                   77.33165              46.15491              34.52141
   AR                   17.38888              13.22130              11.98265
   AR                   84.30109               5.47201              57.36534
   AR                  104.56852              45.69235               4.66614
   AR                  111.82211               1.22296               8.11064
   AR                  100.18697              15.44580              57.75160
   AR                  107.93913              36.80575               2.51477
   AR                   82.25202              33.96652              30.92749
   AR                  106.13773              23.00995              27.96411
   AR                   67.21881               4.53310              59.95334
   AR                   18.78101              30.95369               4.32199
   AR                   68.87742              10.57452              52.48971
   AR                   75.46810              40.37089              47.51190
   AR                   15.42693              16.42373              12.36914
   AR                   18.00906              11.90591              22.05868
   AR                   93.22587              31.14275              58.80062
   AR                   62.83480              33.09653              33.02133
   AR                   65.12494               1.11532               9.46988
   AR                   90.40649              31.86639              53.70708
   AR                    7.16038               8.44971              17.75321
   AR                  104.58755              51.45200              33.04061
   AR                   31.05690               3.45193               1.27030
   AR                   55.07300              54.92158              34.50499
   AR                   65.64350              52.03652              21.12324
   AR                   91.63956              13.72234               2.04941
   AR                   73.17237              11.11165               3.04208
   AR                   33.36358              31.62542              27.54802
   AR                   90.94202              33.60983               7.66453
   AR                   64.45021               4.77893              55.76376
   AR                   58.06715              10.13782              40.46044
   AR                   98.73159               5.29644               8.35498
   AR                   98.79693              31.76678              26.96980
   AR                   21.96385              12.75208              12.43687
   AR                   84.13887              14.68878              25.85133
   AR                   52.87029              54.36540              41.34991
   AR                   83.52776              30.30771              34.30582
   AR                   55.04219               2.28066              19.93611
   AR                   79.24462               2.57794              40.96875
   AR                   16.97414               2.33995              30.17478
   AR                  102.72767              42.77714              60.24255
   AR                   93.50462               7.49455              24.31638
   AR                   12.14751               3.45949              25.18210
   AR                   55.47436              10.74679              53.70844
   AR                   97.67860              53.51363              33.76120
   AR                   71.92376              49.04206              14.67719
   AR                   75.91588              36.89201              51.91917
   AR                   27.81262              12.01026              31.25780
   AR                   20.86727              14.78000              33.27663
   AR                    7.31022              17.28697              17.17024
   AR                   79.68813              57.80015              41.26448
   AR                   82.98388              56.37676               3.69651
   AR                   68.52119              14.43280               2.23098
   AR                   67.68265              60.37077              34.73664
   AR                   97.75939              58.47636              60.89970
   AR                   89.75076              14.34223               7.26719
   AR                   69.84471              26.36889               6.37191
   AR                   91.43301              18.83022              17.26644
   AR                  105.58804              26.60514              39.51426
   AR                   86.06764               2.70848              55.31827
   AR                   18.00813              12.12971              17.40026
   AR                   98.43376              15.62615              10.54907
   AR                   91.30013              47.68460              36.81260
   AR                   69.80388              39.54386              13.93981
   AR                   58.82311              33.53831               6.77434
   AR                   94.20565               2.31201              45.96221
   AR                   72.50507              58.27739              28.91434
   AR                   53.78631              27.66336              21.66112
   AR                   54.72506              23.82840              47.45944
   AR                   54.06346              22.66307               5.87833
   AR                   76.07931               8.79663              20.34795
   AR                  105.13541              44.96545               8.78421
   AR                   86.25053              50.39912              33.04917
   AR                   63.24707              45.98863              30.74853
   AR                   91.69367              52.79703              37.11771
   AR                   24.33887              29.08448              32.02984
   AR                   97.40976              58.40810              10.16014
   AR                    4.38831              19.92662               6.76843
   AR                   77.56171              34.42529              24.95934
   AR                   90.50063              56.14443               0.88004
   AR                   33.61177              27.64584              14.00750
   AR                   15.53026               1.47767              26.43849
   AR                   52.32347              42.73043              43.69790
   AR                   57.83352              23.63106              29.73476
   AR                  105.46053              35.24768              13.91885
   AR                    5.65702              14.40871              33.63682
   AR                   65.66829              25.67491              23.93926
   AR                   95.66168               7.41305              11.75918
   AR                  104.48232               8.15978              21.88661
   AR                  112.05774              53.66905              25.45710
   AR                   54.54712              44.18807              24.91318
   AR                    0.51511              31.96213               1.59981
   AR                   10.47386              34.82574              21.38492
   AR                   98.86472               2.24745              29.76382
   AR                   21.23477              10.21831              15.03138
   AR                   89.69201              33.56047              21.22494
   AR                   62.64814              21.79038              54.10951
   AR                   85.87842               9.24754              42.74213
   AR                  113.07618              39.11485               5.68396
   AR                   83.91111              19.77693               3.17958
   AR                   58.30378              36.71838              40.83017
   AR                  111.58531              37.09629              40.07604
   AR                   22.83657               0.68450              16.22135
   AR                   56.07451              10.82730               1.48359
   AR                   93.93779              30.93238              37.88408
   AR                   56.02171              27.98399               6.70372
   AR                   94.69360              43.11594               5.81875
   AR                   98.81810               5.89481              41.38651
   AR                   72.46582              54.36044              38.17248
   AR                   27.27195              23.70537              23.33417
   AR                   68.53382               4.29112              19.00763
   AR                  111.22704              35.93552              35.43630
   AR                   89.91195               3.35781              30.40550
   AR                  108.41353              24.10617              24.12309
   AR                   94.03297               9.73138               9.92392
   AR                   57.51646              41.30526              57.58080
   AR                   23.12628              23.00012              11.89572
   AR                  105.77478               9.04064              32.58585
   AR                   81.47468              42.90641              49.64768
   AR                   58.74826              49.42064              55.29529
   AR                   65.57855              28.50723              49.92886
   AR                   30.79374               2.90043              32.02641
   AR                  107.22651              37.47115              16.39770
   AR                   98.74402              29.42387              35.48458
   AR                   28.15954               4.46500              34.18470
   AR                  111.36398              43.49727              23.22455
   AR                   77.38768              49.39732              51.51624
   AR                   22.11491              28.23134               3.96387
   AR                   90.90658              20.98589              25.45133
   AR                   95.01146              20.37178              59.42126
   AR                   96.60984              35.88186              35.66592
   AR                   94.32911              54.59309              24.90385
   AR                   83.04078               1.69835              10.15728
   AR                  104.70540              30.74856              41.33816
   AR                   88.03351              47.84511               4.19569
   AR                   21.87703              11.70045               6.12162
   AR                   73.47882              54.56961              16.18013
   AR                   63.68976              47.37895               6.36157
   AR                  112.29407              11.12412              32.05803
   AR                   96.94713              59.66955               4.60629
   AR                   69.69612              24.07478              16.19122
   AR                   59.68722              43.40326              13.11453
   AR                   61.46838               1.57669              43.90202
   AR                   90.19683              28.75366              13.02743
   AR                   88.85995               7.56735              52.14918
   AR                   34.53862               4.50104               7.59742
   AR                   93.69869              31.39075              52.23147
   AR                   95.28408              38.85275              26.01265
   AR                   58.04390              39.87208              21.22041
   AR                   10.95856              34.33267              17.53835
   AR                   53.56371              21.68042              58.39073
   AR                   63.72049              31.90292              55.47110
   AR                  111.64085              13.96286              47.44763
   AR                   64.63360              25.28591              47.32369
   AR                   98.27400              34.83747              49.22565
   AR                   84.32511              23.43727              37.72531
   AR                   84.28236              59.43914               6.16769
   AR                   61.47361              45.39023              24.02964
   AR                   64.10476              46.66408              21.38383
   AR                   58.01992              29.60420              35.26044
   AR                   52.39100              27.19906              58.74311
   AR                   14.82866               0.11077              33.33972
   AR                  100.76184               1.95397              18.60019
   AR                   85.72196              57.00101              60.20735
