       206
            31.57257            77.49625
   AR                   57.22083              70.77439              69.38431
   AR                   60.89062              52.18246              75.95943
   AR                  107.24759              46.00818               5.91992
   AR                   89.80601              41.30549              20.25935
   AR                   81.76912              37.75437              75.03855
   AR                  100.51029              44.79550              16.15850
   AR                  117.54650              44.29213               0.25621
   AR                  113.56696              32.34897              32.86813
   AR                   73.33022              61.72534              72.47103
   AR                  107.49597               6.42378              52.80367
   AR                   50.57943              13.27041              36.75744
   AR                  104.63639              74.14837              32.46432
   AR                   88.27505              37.18504              47.18796
   AR                   60.60372              76.68975              20.09638
   AR                   80.27986              15.93556              59.91590
   AR                   67.37924              57.14967              55.72120
   AR                   87.59964              36.72963              40.82089
   AR                  106.87311              56.92795              32.10977
   AR                  124.09974              58.65655              14.59345
   AR                   92.98608               2.27393              73.40413
   AR                   10.55177               1.09316               2.55061
   AR                  101.16776              71.74110              32.24736
   AR                   79.83643               7.68078              64.56278
   AR                  124.62935              52.10904              56.29281
   AR                  110.15100              58.72269              28.31389
   AR                   50.21224              62.16598              30.07430
   AR                   86.83912              31.79556              74.02197
   AR                   76.43473              63.46842              16.24174
   AR                  107.74436              52.82839              56.06014
   AR                  111.88127              25.39800              72.87649
   AR                   69.79064              59.45445              57.72022
   AR                  100.36647              48.65369              37.73156
   AR                  111.72045              12.16182              38.53664
   AR                   63.93930              51.15228              47.11602
   AR                   90.52238              46.20231              17.41964
   AR                   15.16942               3.82299              22.11287
   AR                   92.14130              72.99003              34.53611
   AR                  107.75048              61.34256              69.78918
   AR                   92.30735               1.92135              10.05777
   AR                  114.82393              62.04760              18.27815
   AR                   56.91694              48.64833              61.04570
   AR                   68.98470              16.44566              57.97750
   AR                  115.59356              63.37019              13.45265
   AR                  105.39895              47.29037              14.71590
   AR                   95.58200              59.51080              73.82723
   AR                   92.61375              71.71843              71.97783
   AR                   57.01854              32.12836              12.43062
   AR                   99.55344              74.43847              72.83253
   AR                   63.37401              10.49235              45.77588
   AR                   98.92962              35.40678              27.44990
   AR                   62.56406               5.11553              47.00432
   AR                   21.96533              27.11149              17.31715
   AR                  102.75932              51.89027               0.33743
   AR                   61.08621              48.05678              63.39259
   AR                  123.29799              30.94410               4.05031
   AR                  102.91578              21.45351              36.98363
   AR                   94.98939               1.58734              20.36979
   AR                   92.08835              47.49706              25.28705
   AR                   73.77508              27.41933              57.74328
   AR                  109.64203              50.05725              31.38186
   AR                   98.13860              49.36227              43.57178
   AR                   51.61218              45.19291              33.40585
   AR                   98.58041              14.38545              40.85436
   AR                   59.10997              33.16322              44.60453
   AR                   31.30548              11.18687               4.62693
   AR                   96.43261              67.03072              11.11514
   AR                   69.99042              64.28212               2.27922
   AR                  105.13611              28.88234               9.84161
   AR                  119.89387              47.06617              30.07477
   AR                  108.47601              45.39850              46.05710
   AR                   94.54170              39.45143              30.44509
   AR                   62.37926              25.37620              25.02832
   AR                   83.05759              32.67850               8.38678
   AR                   66.94351              63.03768              43.50301
   AR                  105.80774              70.65299              42.01161
   AR                   92.20398              15.41402              18.36094
   AR                  122.20103              26.60886              66.59069
   AR                   66.54982              10.18929              49.90757
   AR                   60.14235              53.51952              65.61352
   AR                   72.55615              59.93421              21.84743
   AR                  113.88635              37.07241              20.16662
   AR                   69.57320              50.15160              75.61703
   AR                   60.46266              41.60317              32.71713
   AR                   76.41193              20.27405              67.19698
   AR                   71.60555              35.71475              31.60530
   AR                   84.00405              61.28817              43.14109
   AR                   80.83520              14.26236              49.01132
   AR                   98.50396              62.49404              58.60712
   AR                   78.98495              11.32763              67.74193
   AR                   80.55495              70.76893              24.97717
   AR                   72.75151              69.22255              62.01210
   AR                   51.27749              30.26095              67.19668
   AR                  122.50454              71.92807              50.53749
   AR                  101.60018              64.58727              75.47937 FRACTIONAL
   AR                   63.52119              56.56782              66.08587
   AR                   63.49214              46.51763              47.67576
   AR                   96.65524              28.57472              28.65882
   AR                   59.26841               9.87651              10.23388
   AR                  101.26504              60.03853              18.54235
   AR                   50.24280               6.49235              69.52792
   AR                  108.90868              63.59339              41.99651
   AR                   54.15557              36.68036              35.53493
   AR                   80.39841              25.59776              70.03805
   AR                  117.55712               2.84903               3.88025
   AR                   63.62675              61.89524              62.70788
   AR                   47.86060              30.61764              38.59418
   AR                   97.21876              41.49196              38.86961
   AR                   54.32253               1.21602              13.89277
   AR                  115.69405              15.54555              30.18910
   AR                   87.03869              74.30415              42.41151
   AR                   68.50836              50.80566              49.74264
   AR                  114.42362              38.46461              55.35774
   AR                   59.41783              52.37165              69.57496
   AR                   48.96344               4.39470              53.82720
   AR                    9.05072              11.49794              10.08175
   AR                   71.71892              67.03074               5.01394
   AR                   23.87648               5.54795              23.05599
   AR                  106.35311              60.97738              66.17241
   AR                   98.73456              63.87031               6.48624
   AR                  108.58541              13.68371              64.57022
   AR                   83.37027              26.43012              26.76262
   AR                  120.99096              17.54734              75.33039
   AR                   80.47331              61.73921               8.69345
   AR                   76.20228              58.40095              54.29801
   AR                   88.91017              10.08214              71.33187
   AR                   16.51615               7.81371              18.06384
   AR                   20.03188               8.48120               5.78445
   AR                   96.18399              72.21245              66.03729
   AR                   48.18523              40.98196              62.33565
   AR                   81.34627               4.72095              56.87574
   AR                   49.59744              10.77910              42.69550
   AR                   83.69815              57.57826              25.14518
   AR                  116.42493              57.59544               5.12514
   AR                  102.01323               6.89228               3.20316
   AR                   84.28558              67.31890              10.63691
   AR                   52.42432              46.25123              11.84999
   AR                  117.49289              66.15524              62.81128
   AR                  111.21395               6.80520              35.05523
   AR                   86.83315              67.58346              38.10493
   AR                   79.89863               8.93151              55.62590
   AR                  108.91964              38.54127              21.39469
   AR                  102.90344              33.62276              68.51189
   AR                   97.76502              55.48229               5.84388
   AR                   65.50256              74.68544              18.54036
   AR                   85.15267              43.20072              11.91198
   AR                   54.65443              24.03579              56.76209
   AR                  100.65959              30.88610              16.73298
   AR                  102.37469              63.65158              72.54206
   AR                   65.03176              18.43355              56.84168
   AR                  108.67522              21.85338              25.51807
   AR                  101.88689               1.80891              53.08303
   AR                   54.85305              20.22089              37.78444
   AR                   24.89843              23.39705              29.46364
   AR                   92.57053              40.23283              24.71224
   AR                  121.85856              42.56824              10.77962
   AR                   94.28829               2.51425              65.13893
   AR                   66.23916              14.69178              76.33187
   AR                   80.20007              42.00171              76.55304
   AR                   99.15253              52.50365              26.19383
   AR                   17.27384              22.66312               3.59198
   AR                   91.13068              13.57968              45.48116
   AR                  100.07572              29.31034              43.07038
   AR                   65.48365              40.59765              34.86213
   AR                   60.97048              36.09533              20.26121
   AR                  119.44454              13.05023              34.90288
   AR                  119.42829              46.47524              15.48713
   AR                   49.77548              21.01782              47.94459
   AR                   77.72681               2.63035              25.67302
   AR                   86.03170               2.59281              36.58019
   AR                   49.25823              42.54914              46.87556
   AR                  119.19378              36.27496              10.66313
   AR                   63.13854              70.81789              50.88960
   AR                   75.77580              62.42503              57.93522
   AR                   83.59213              21.41427              67.88793
   AR                  114.21260              25.09929              56.19906
   AR                  101.65521              66.88947              36.12064
   AR                  121.18788              46.83280              69.01681
   AR                   73.49768              35.49911              63.41291
   AR                   54.33841              64.82650               2.37407
   AR                  103.42953              70.51869              29.49694
   AR                   79.67339              41.05734              17.53750
   AR                   88.12881              14.94232              16.26759
   AR                   78.84047              59.61811              38.48493
   AR                   92.01705              19.93168              30.79022
   AR                   69.92140              60.06186              51.32000
   AR                   69.53700              51.52220              68.63613
   AR                   49.70825              33.19967              71.70614
   AR                   55.26649              72.95139              24.72726
   AR                  121.66405              32.08940              48.94578
   AR                   90.74329              10.76394              17.61116
   AR                  124.79886              44.22112              18.43569
   AR                  113.97335               4.74023              22.14049
   AR                    2.85058              15.63281              12.45667
   AR                  119.40347               8.71373              62.11631
   AR                  117.11614              70.47352              28.75072
   AR                   86.59725              56.73218              59.54955
   AR                   88.09305               2.41215               3.35123
   AR                  114.97162              77.09168              57.69697
   AR                   82.20785              25.88854              50.69183
   AR                   84.09297              15.08317              62.71242
   AR                   67.69380              24.33686              10.60278
   AR                  106.87736              15.89197               5.87884
   AR                   48.62288               7.62793              44.05906
   AR                  111.36069              15.58657               3.15377
   AR                   55.42213              41.14056              14.87608
   AR                   87.04293              70.01736              19.72671
