       461
            31.55609            50.02837
   AR                   93.69575              21.26844              26.40616
   AR                   13.83938               2.13696               2.82848
   AR                   65.27403              16.21449              20.19170
   AR                   79.49799              46.73396              45.36627
   AR                   13.92628              16.73289               4.48873
   AR                   94.68886              19.35589              19.82882
   AR                   93.40779              44.39833              11.98143
   AR                    4.95034              26.68794              26.94325
   AR                   64.60172              26.15370              37.54492
   AR                   77.83544               7.15786               7.21021
   AR                   83.98820              42.52430              22.89628
   AR                   49.37307              18.05505               4.56117
   AR                   69.99313              23.63746               2.89357
   AR                   54.38739              13.39731              22.56052
   AR                   69.70486              38.60943              45.71416
   AR                   52.80242              43.05946              14.25291
   AR                   57.49827              45.70844              35.75681
   AR                   59.93870              16.70176              25.61501
   AR                   81.89237              22.45015               3.48484
   AR                   52.56567              44.50957              19.47980
   AR                   13.91326              26.69498              15.62123
   AR                   69.13844              41.95025              43.26101
   AR                   49.49129              10.45476               1.31275
   AR                   56.27809              22.62821              29.86205
   AR                   81.63599               5.25006               3.59764
   AR                   52.77052              25.41827              15.07283
   AR                   83.81842              38.08102              23.23609
   AR                   58.28683              46.73693               3.00354
   AR                   81.49732              13.50706              42.86387
   AR                   55.24621               1.79786              13.63950
   AR                   70.85793              36.14058               6.06751
   AR                   51.48519              38.43464              24.10689
   AR                   21.54120              26.57198              18.53333
   AR                   55.05715              41.81487              34.07210
   AR                   56.91965              37.51122              19.47175
   AR                   69.68413              45.50715              22.13224
   AR                    9.71615              28.49525               9.85951
   AR                   70.71397              27.63901              21.21575
   AR                   28.42621              14.40667              20.84724
   AR                   57.96851               0.45008              20.73848
   AR                   84.61260               8.09348               1.24903
   AR                   56.92713              44.29412              18.79125
   AR                   59.42905              25.76109              31.34290
   AR                   84.69343              13.99954              36.98993
   AR                   21.95925              21.56421              20.42028
   AR                   79.21939              40.36619               1.58810
   AR                   47.52194              40.50574              46.34076
   AR                   83.49941               0.72057              40.76157
   AR                   72.33344              46.36654              16.30135
   AR                   82.72933               6.69057              18.82024
   AR                   10.27853               5.77058               2.54515
   AR                   78.13700              25.43914              26.36143
   AR                   92.38501              12.71144              34.85430
   AR                   24.41415              28.93934               8.61917
   AR                   67.43258               8.11513               2.78123
   AR                   54.93391               3.17515              48.44594
   AR                   85.36444              23.27623               2.77904
   AR                   50.32906              43.79280              38.41605
   AR                   28.02600               4.88062              30.45648
   AR                   64.41675              34.92448              21.84688
   AR                   92.81407              40.71826              31.65332
   AR                   53.88923              15.06402              12.40947
   AR                   74.01251              16.85799              32.51357
   AR                   94.10914               3.93816              19.79630
   AR                   93.10206              29.93190               5.70010
   AR                   69.38162              41.99378              33.17616
   AR                   53.24383              27.31846              33.47563
   AR                   65.39759              12.74475              44.95460
   AR                   70.64195              45.00875              35.53709
   AR                   48.39560              19.71671              41.55062
   AR                   77.24791              23.75049              13.03777
   AR                   78.69363              41.61602               9.52125
   AR                   70.34561              29.43949              36.32600
   AR                   82.18165               1.91422               7.22345
   AR                   17.35956               6.52797              15.18384
   AR                   52.02342              44.23829              48.75882
   AR                   16.83763              14.46428               3.03364
   AR                   78.32031               0.38062              24.45360
   AR                   75.00896              33.34067              16.34104
   AR                   75.06503              46.17008              18.51210
   AR                   48.27512              26.24459              42.35664
   AR                    9.38324              11.42445              23.08096
   AR                   82.43894              30.63582              45.58062
   AR                   53.52912               5.29198              37.43875
   AR                   93.19134              46.58259              17.01624
   AR                   94.92750               4.35487              34.43452
   AR                   67.47070              20.70008               6.05508
   AR                   68.68580              31.41680              42.67295
   AR                   77.18218              35.55663              49.30885
   AR                   91.27635              11.10250               5.29528
   AR                   75.01168               4.84082              33.24972
   AR                   67.00259               5.69101              23.58967
   AR                   13.21398               3.19313              30.19264
   AR                    5.82702              20.53106               8.44034
   AR                   79.67575              16.26121              10.34389
   AR                    4.51393              19.44178               3.52122
   AR                   81.56898               3.54493              20.22998
   AR                   64.98596              16.26897              13.11967
   AR                   57.41407              12.48167              29.76522
   AR                   64.73420              20.84587              13.90280
   AR                   49.02444              30.79304              20.55438
   AR                   81.18017               9.41476              22.01883
   AR                   53.19042              49.42277              39.51599
   AR                    4.18973               9.47027              26.08853
   AR                   75.24636              44.24020              35.29554
   AR                   68.91730               4.76713              44.00180
   AR                   29.44865               3.28707              27.45878
   AR                   57.11513              17.44870              35.16854
   AR                    8.41461              12.01815               0.21999
   AR                   50.23331              21.51148              38.31577
   AR                    2.65658               3.75300              11.11987
   AR                   70.03012              45.35235              43.33777
   AR                   70.88104              22.45694              44.44384
   AR                   60.05057              18.99446               9.94687
   AR                   66.65867              32.20092              23.44996
   AR                   71.15140               1.43839              10.10633
   AR                   73.00505               6.48334               9.05538
   AR                   82.34796               4.88629              13.41073
   AR                   80.85343              43.60832              34.00305
   AR                   90.28205              49.67149              28.28901
   AR                   56.39177              31.84330               0.42812
   AR                   78.53666              14.06797              39.54499
   AR                   86.29882              48.58099              49.28353
   AR                   64.50856              10.68442              14.13996
   AR                   17.01797              26.00645              11.07376
   AR                   61.06160              10.58121              11.59787
   AR                   72.51320              10.89533              16.39001
   AR                   84.96846              16.15857              33.42356
   AR                   19.81020               2.70598              28.59544
   AR                   49.31810              32.74009              12.13148
   AR                   13.34361              24.72852              28.72490
   AR                   50.89617               3.38290              33.67386
   AR                   59.49424              19.69772              37.77944
   AR                   90.19264               7.38733              32.59941
   AR                   29.28467              17.33778              16.54627
   AR                   77.41276              24.32754               0.70224
   AR                   29.09665              30.00443               2.89341
   AR                   84.93164              14.46883               4.85686
   AR                   53.71310              46.37090              35.66009
   AR                   90.15247              25.57503              17.51325
   AR                   56.67454              25.70729              22.93052
   AR                   82.44303              23.04644              37.93091
   AR                    9.77674               2.53524              15.32186
   AR                   54.80989              29.98582              22.50895
   AR                   13.42874              28.31753               6.68544
   AR                   26.46752              13.83371              18.02982
   AR                   60.57866              43.31858              25.49361
   AR                   23.35799              21.94152               8.28555
   AR                   76.35802               0.23914              10.25290
   AR                   72.52937              39.80764              13.56769
   AR                   56.50969              32.46605              35.45896
   AR                   84.17145               8.15449               7.57258
   AR                   85.48186              43.16721              49.35707
   AR                   59.57711              18.57909              17.28976
   AR                   68.68555              15.59030              31.66177
   AR                   48.33649              12.38752              25.29504
   AR                   60.57221              33.73605              30.96462
   AR                   88.02353              43.35386               2.72855
   AR                   59.57048              34.56222               3.76955
   AR                   12.46503              11.31622              20.32936
   AR                   55.45617              11.68300              13.10992
   AR                   76.48692              47.11131              40.73194
   AR                   80.63345              44.07660               2.55441
   AR                   76.75620              23.16718              28.47532
   AR                   72.22133              20.92813               5.92049
   AR                   78.12562              47.43074              29.31591
   AR                   91.70204              24.87124              32.99812
   AR                   11.05359              12.96796              13.64872
   AR                    9.46913              16.95706              18.39192
   AR                   90.68437              17.76898              42.69132
   AR                   94.04701              27.30761              28.55205
   AR                   28.32440               5.11336              24.39273
   AR                   48.69029              47.07926              30.61735
   AR                   77.34146              21.74406               9.78858
   AR                    6.00962              15.35810               8.61560
   AR                   73.46760              20.87204              40.38429
   AR                   62.21007              23.47666              28.77862
   AR                   12.29029              23.56538              13.49959
   AR                   65.45380              40.35996              35.69964
   AR                   86.90255              24.62906              41.36347
   AR                   89.69133              36.60756              14.85055
   AR                    2.09203              29.64514              19.66365
   AR                   61.13820              43.42567              19.04571
   AR                   75.52342              43.51576              40.20310
   AR                   63.55002              22.66967              18.52199
   AR                   66.96406              46.84869              48.38847
   AR                   64.46607               4.69901              33.66672
   AR                   50.44075              42.59428              26.40883
   AR                   54.72786              39.91080               7.83859
   AR                   64.68141               8.61263              31.18601
   AR                   65.75143              17.78990              33.32394
   AR                   69.22218              41.72741              37.25555
   AR                   53.20951              49.86763              48.96671
   AR                   85.18440              26.05512              23.99548
   AR                   93.24857              29.60078              24.49509
   AR                   76.73781              38.34832              13.98926
   AR                   20.69859               6.70229               2.38250
   AR                   53.47990               7.01221               4.19970
   AR                   63.47020              38.01228              19.99534
   AR                   53.39778              46.65941              44.91318
   AR                   10.38663              28.80797              27.76560
   AR                   52.83892              36.20936              21.88075
   AR                   94.24159               0.86841              43.78788
   AR                   88.46558               2.58027              32.18548
   AR                   73.81765              18.02928               7.27425
   AR                   68.23713              37.81901              36.49764
   AR                   66.63904              40.45371               5.54440
   AR                    3.54881              26.40308               1.23301
   AR                   58.68871              47.08579               9.54910
   AR                   70.96855              30.34713              18.77364
   AR                   83.22766              33.93706              10.81771
   AR                   47.70171              43.28635              20.32185
   AR                   67.39915              43.91733               5.84579
   AR                   47.71472               6.83211               9.87196
   AR                   14.26927              31.33830               7.39411
   AR                   25.85589              31.41943              26.10080
   AR                   70.41628              19.93034              22.53022
   AR                   68.84275              14.88547              10.14606
   AR                   91.80278              22.01451              15.23285
   AR                   89.18739              25.02633              30.93712
   AR                   62.47274               8.97109              33.90420
   AR                   79.29458               0.39775              36.15312
   AR                   91.15478              16.34604              29.75371
   AR                   59.87110              25.90406              20.11900
   AR                   59.39900              36.29190               0.98919
   AR                   74.83396               5.32388              11.47489
   AR                   49.26728              13.96312               6.83244
   AR                   82.41525              29.26698              23.64803
   AR                   96.43155               7.43656              19.82395
   AR                   82.03349              20.34770              17.55137
   AR                   72.79028               3.02593              36.92309
   AR                   66.93612              25.74442              46.64462
   AR                   29.91339              18.12439              12.52777
   AR                   73.75894               2.88367              27.14457
   AR                   55.92138              39.77200              31.03202
   AR                   56.05343              42.24683               6.10316
   AR                   61.61757              37.06996               6.22968
   AR                   65.99017               2.92260              11.78035
   AR                   58.18333              23.73549              35.71918
   AR                   94.57639              16.93645              34.33575
   AR                   71.00569              10.44098              25.66737
   AR                   74.40121              20.61429              48.25900
   AR                   58.98593              33.41967              48.00326
   AR                   73.70270              34.30652              41.46674
   AR                   89.50038              23.92327              13.20756
   AR                   67.78365              10.04120              15.32321
   AR                   87.92214              44.63572              31.48295
   AR                   91.34556              21.52088              20.07632
   AR                   73.57762               8.06564              21.08612
   AR                   67.76598              42.94375              27.44383
   AR                   64.23540              48.48907              32.70187
   AR                   70.22679              41.58279               2.77192
   AR                    0.98957               5.70458              31.31522
   AR                   94.00268              24.07681              23.11936
   AR                   84.89529              30.92711               6.17045
   AR                   86.21773              33.65130              21.21906
   AR                   74.32671               9.50921               9.03964
   AR                   54.19257              21.57850               6.81414
   AR                   59.13118              31.16096              41.82566
   AR                   30.18408               1.08218              11.07443
   AR                   61.30286              25.13888              48.54961
   AR                   56.63845               8.62412               0.99847
   AR                   91.79234              29.77542               1.19410
   AR                   58.06024              42.90887              44.81106
   AR                   93.15696               7.80731              37.21385
   AR                   92.13197               7.91824              24.72544
   AR                   83.41521              39.49550              48.32016
   AR                   59.49341               5.69467              16.62511
   AR                   61.99647               4.44993               6.59489
   AR                   62.10733              25.52722               8.24765
   AR                   77.51276              16.49326              49.58364
   AR                   55.47909              19.14379              39.60531
   AR                   71.32491              26.17491              28.22467
   AR                   55.21842               9.06652              23.44295
   AR                   66.64735              15.82772              48.53522
   AR                   78.40879               6.84078              33.22882
   AR                    5.96195              20.99961              14.05821
   AR                   96.12964              40.97522              32.55360
   AR                   83.53095              26.00653              40.17581
   AR                   86.69824              23.00759              29.53302
   AR                   52.52984              31.40043              37.68157
   AR                   74.33057               2.74699               7.64199
   AR                   56.14028              34.55839              21.67553
   AR                   11.71326              29.92929               1.06268
   AR                   71.33581              17.44961              39.87247
   AR                   94.76424               6.86313              46.62843
   AR                   78.91885              46.48610              36.91343
   AR                   86.09719               4.09727              34.90935
   AR                   64.89194              14.89245              31.33035
   AR                   29.41709              23.27647              24.30087
   AR                   94.15894               0.77543              25.84825
   AR                   27.18922               5.48095               7.90422
   AR                   12.20212               7.39980              19.72470
   AR                   52.14153              35.31634              38.51694
   AR                   75.26236               6.05009              15.16922
   AR                   50.01500              48.07172              13.19610
   AR                   69.70595              16.05673               1.07714
   AR                   49.19371              38.97253               5.70549
   AR                   75.67175              24.04049              39.40380
   AR                    1.38845              18.21046              22.18457
   AR                   67.44387               2.41324               6.48831
   AR                   61.77590              47.01972              36.46030
   AR                   57.67687              20.40197              20.03588
   AR                   67.79085              12.34565              37.19618
   AR                   89.26392               1.02575              20.90265
   AR                   47.51963              38.85049              39.43612
   AR                   52.10864              23.17210              18.20011
   AR                   91.83912              21.01415              37.31585
   AR                    8.15987               6.40463              17.15708
   AR                   92.71968              39.50914              37.42029
   AR                   77.09427              29.00006              17.97363
   AR                   75.71205              32.33406              28.35389
   AR                   59.97120               9.12479              30.65833
   AR                   65.55111              33.95541              43.25048
   AR                   62.32182              13.36044              20.04384
   AR                   11.16013               9.70020              27.90722
   AR                   51.86280              12.83578              31.30649
   AR                   50.41146              40.50069              34.43537
   AR                   79.69573              43.66370              47.60917
   AR                   58.41848              47.15807              33.01072
   AR                   13.06701              18.89107              16.45495
   AR                   57.60368               6.36436               6.34309
   AR                   56.20991               9.27263               4.20894
   AR                   96.58854              45.92733              26.65066
   AR                   23.98541              26.07007              29.80808
   AR                    2.05293              29.48615              16.20651
   AR                   72.91559              13.17310              11.95744
   AR                   80.78557              15.51832              47.05097
   AR                   77.91335              44.83876              15.90405
   AR                   16.59607              13.42935               7.25633
   AR                   78.89311              38.06470              29.46085
   AR                    0.53665               6.60176              27.14249
   AR                   74.61330              33.95889               9.77753
   AR                   60.54218              36.54178               9.94929
   AR                   16.78386               6.66657              18.95294
   AR                   14.43043              31.28565              25.42346
   AR                   84.73181              22.28118              16.90260
   AR                   67.36038              11.31298              10.84631
   AR                   78.81611              26.61545              29.91312
   AR                   93.17087              48.01390              30.68390
   AR                   58.73828              22.59143              32.34264
   AR                   15.76757              10.24301              28.60909
   AR                   75.31857              42.61145              20.01415
   AR                   25.05168               3.58358              23.50720
   AR                   25.81544              29.61733              29.00939
   AR                   82.44745              29.66413              19.57797
   AR                   71.71502              11.25860               8.24813
   AR                   62.31875              36.60024              44.92534
   AR                   67.87622               0.67763              32.97881
   AR                    7.99260              20.25222              17.88807
   AR                   76.52466              39.76461              22.55072
   AR                   49.40065              13.41708              18.77397
   AR                   61.36788              29.36993               3.44336
   AR                   80.48546              24.15159              14.08974
   AR                   81.98774               4.55699              35.37706
   AR                   77.11058               8.50715              19.50940
   AR                   58.46409               9.15077              16.69386
   AR                   90.97341              43.00611              24.85719
   AR                   75.73702              29.55098              21.23246
   AR                   50.94577              22.51584              27.79008
   AR                   21.63446              28.28130              14.32712
   AR                   21.43397              16.36098              22.76096
   AR                   82.81149              24.44127              32.95330
   AR                    4.10670               4.25734              25.68584
   AR                   76.94982              27.11911              12.81520
   AR                   57.48431              45.54887              13.05705
   AR                   64.27978              10.65433              39.21216
   AR                   78.17574              37.98829               7.62484
   AR                   75.76878              44.79051               6.69047
   AR                   81.61301               5.82559              31.60614
   AR                   29.86129               6.61928               3.70334
   AR                   27.92080              10.02767              19.67963
   AR                   85.44337              12.19936              33.23510
   AR                   81.30934              10.92155              29.32164
   AR                   67.23324              43.92689              35.78279
   AR                   86.31597              10.95981              26.04304
   AR                   49.46395              34.77687              33.15247
   AR                    1.64463              25.32758              17.38074
   AR                    9.55451              24.82997              17.93225
   AR                   62.28666              15.61817              48.72462
   AR                   83.92387              47.03207              45.99009
   AR                   54.83426              26.74692              41.39682
   AR                   55.95410              10.23802              37.24140
   AR                   62.43943              33.56316               1.82216
   AR                   87.75927              18.03777              27.05037
   AR                   78.92167              34.23609              31.97527
   AR                   62.53004              25.02038              32.97461
   AR                   87.76958              20.89355              12.81007
   AR                   81.51622              47.82748               9.45737
   AR                   76.72161              22.42489              24.40621
   AR                   50.12243              29.36590              32.21439
   AR                   58.64039               1.60087              44.73608
   AR                   14.53909              29.21357              18.83558
   AR                   55.91530               4.24417              34.61678
   AR                   86.11415              26.15860              34.02377
   AR                   50.48075              37.47580              31.75156
   AR                   50.97007              32.02468              30.23412
   AR                   18.94479              20.75917               5.82901
   AR                   96.59782              13.89803              38.07602
   AR                   86.61593              29.87314              26.06177
   AR                   28.28268              23.50687              10.52763
   AR                   70.87667              14.44275              16.86576
   AR                   78.20608              43.11411              36.53214
   AR                   86.47748              48.13519              39.67092
   AR                    8.10314               1.04295              28.79765
   AR                    1.68885               5.93061              16.04870
   AR                   67.47879              47.73338              40.52762
   AR                   30.64554              20.43784              10.03129
   AR                   16.15450              30.51737              17.09768 FRACTIONAL
   AR                   79.59294               2.36116              43.38372
   AR                   97.06668              14.01736              47.64960
   AR                   15.67755              16.41965              15.55140
   AR                   90.82719               4.82579              19.05602
   AR                   60.25892              13.72952              14.00541
   AR                   24.10534              15.37663              27.04983
   AR                   89.44927              19.19288              30.95090
   AR                   84.46876              41.55579              17.67095
   AR                   86.37372              46.77042              26.92634
   AR                   82.39185              13.81170              16.28176
   AR                   77.57007              45.71772               2.25138
   AR                   69.45270              33.82342               3.57996
   AR                   27.41918              23.98446               6.43306
   AR                   87.78697              39.53309              14.96795
   AR                   47.81775              27.21837              23.47389
   AR                   76.59220              18.29599              23.45230
   AR                   49.61789              42.19078              22.92109
   AR                   75.28512              20.20476               1.73423
   AR                   61.04751               8.43639               1.24274
   AR                   61.94798               5.36310              25.87901
   AR                   64.05405              35.58564              25.97094
   AR                   90.82427               7.22185               1.11697
   AR                   50.08628              42.63221              16.61060
   AR                    4.82151              17.25883              17.97290
   AR                   78.73971              29.88018               0.71017
   AR                    4.78199               0.52470              26.59608
   AR                   58.30181              36.18561               6.57686
   AR                   74.28973              32.87436               0.72000
   AR                   59.82145              36.82649              23.94676
   AR                   96.82976              45.56179              14.68353
   AR                   62.47435              18.61992              46.84644
   AR                   87.02482               9.91549               4.33205
   AR                   85.21356              19.06105              14.88166
   AR                   59.16881              25.15956               9.96866
   AR                    7.35927              18.12630              10.63916
   AR                   96.65193              12.50815              22.28380
   AR                   65.86936               7.28088              10.28841
   AR                   79.88975              40.36968              37.06894
   AR                   25.67517               5.77183              12.48618
   AR                   85.68058              36.47548              31.98756
   AR                   66.78234              29.52001              13.92174
   AR                   49.07345              32.17021              24.78398
   AR                    2.23363              31.07423              23.74589
   AR                   61.83690              11.75192              46.06381
   AR                   88.63552              48.88441               3.15849
   AR                   15.47725              20.01533               4.63827
   AR                   86.02786              44.13452               7.20090
   AR                   84.41002               5.29305              42.62297
   AR                   91.00123              46.37570              33.07520
   AR                   49.42115              29.94937              14.27202
   AR                   54.34506               0.81689              30.20483
   AR                   55.98950               9.34521              32.38791
