       391
            35.68481            50.86469
   AR                   77.05096              46.19949              44.15173
   AR                  101.33778              20.90089              20.06834
   AR                   59.19136              24.33316              18.17294
   AR                   59.26748              35.67396               4.10498
   AR                    8.92873              10.63969               1.09922
   AR                   98.98386              41.49687              26.43304
   AR                   85.18273              26.25705              17.79364
   AR                   54.28095              14.99467              50.45894
   AR                   69.75134               9.46779              25.95110
   AR                   69.22226               8.36971              31.47293
   AR                   91.53495               0.45298              13.47525
   AR                  100.41040              47.89760              18.70941
   AR                   22.84487              18.49163               2.94026
   AR                   62.08435              44.64415              23.12483
   AR                   91.67172               4.91377              40.31172
   AR                  103.97296              29.59443              12.92364
   AR                    3.56026              34.05017               5.97871
   AR                   97.28181              23.99011              46.24810
   AR                    5.20738              13.20040               8.87884
   AR                   30.51509              34.30016              24.30253
   AR                   71.97287              16.57865              30.52774
   AR                    8.97320               4.62947               1.24350
   AR                   13.81011              12.68953              29.51519
   AR                   72.42701              18.38748              25.79553
   AR                   74.44957              11.86012              14.43560
   AR                   16.13341              22.57541              10.40582
   AR                   19.82334               8.38344              28.22635
   AR                   99.06770              10.29621              28.12076
   AR                   31.47739               8.43910              32.07830
   AR                   29.20336              30.55452              16.84233
   AR                   77.99043              32.81921              32.49988
   AR                   63.98569              11.04398               2.69162
   AR                   19.10770              24.52855              32.14947
   AR                   84.41053              43.66379              47.65862
   AR                   66.18099              29.09803              30.38271
   AR                   11.15236              11.26100              33.45510
   AR                   69.68397               2.15468              13.98563
   AR                   23.59383              23.58215              12.02851
   AR                    2.13934               0.43838              27.94848
   AR                    9.88520              14.82559              35.29582
   AR                   57.77410              32.89507              22.97419
   AR                   12.88881              33.52875              33.84310
   AR                   31.79157              32.20116               0.85877
   AR                   24.77222              31.24207               2.69251
   AR                   29.15084              11.29006              27.54991
   AR                   30.53546              16.56948               2.12593
   AR                   55.68691              16.86618              14.16618
   AR                   76.66991              49.50238              38.25454
   AR                   15.06871              25.40775               6.66072
   AR                   69.94041              48.36565              21.57941
   AR                   29.87870              29.19672              23.99212
   AR                   91.91216              39.20131               4.76572
   AR                   19.98135              28.36978              21.91737
   AR                   78.05767              22.03698              25.21203
   AR                   65.33639              27.75269              48.97104
   AR                   16.85207              30.73075              14.61963
   AR                   85.52818              22.47687              13.94865
   AR                    9.60022               6.13726               6.01506
   AR                  104.38471              15.71853              31.34839
   AR                   84.26569              10.10326              37.60148
   AR                   91.60356               7.33785              34.75542
   AR                   79.44620               4.99336              31.46752
   AR                   34.01212               0.25139              23.06679
   AR                    8.23166              23.32631               3.66052
   AR                   28.33595               8.35190              30.90640
   AR                   99.51396               4.83564              35.64548
   AR                   24.48598               6.42378              22.66170
   AR                   86.32219              34.94993              25.08293
   AR                    5.11824              34.38818              30.37861
   AR                   99.22779              46.88655               1.03134
   AR                   32.48429              17.60388               5.17704
   AR                  103.10409               5.06700              49.44925
   AR                   67.38869              34.35348              12.48486
   AR                   28.38838              11.28028              12.18286
   AR                    5.39465              12.20222               3.53778
   AR                   55.39581              15.35472              46.17866
   AR                   88.78579              24.05474              37.59192
   AR                   62.03994              35.13566              13.67758
   AR                   86.20438              43.71994              24.10698
   AR                   31.06728              12.75548               2.32485
   AR                   68.90130              40.34188              15.02208
   AR                   77.84486              21.96294              19.56523
   AR                   76.39224              19.10786               0.24982
   AR                   74.92102              20.18049               9.15709
   AR                   75.77614              11.05092              21.95375
   AR                   82.51740              19.26833              19.54115
   AR                   18.35442              26.44373              25.63815
   AR                   89.59902               4.93026              15.48712
   AR                   80.46883              10.09799               8.66840
   AR                   86.15506               9.41845              46.39926
   AR                   77.96246              13.65099              20.17081
   AR                    5.93641               0.55658               7.96570
   AR                   29.09011              15.26946               6.20526
   AR                   76.19256               5.18110              11.62749
   AR                  102.12984              10.85280              31.25839
   AR                    8.29068              23.00355              17.39723
   AR                   66.66218               2.66154              30.30381
   AR                   95.09010              23.72942              35.95733
   AR                   35.58088              26.93249               4.44038
   AR                  102.61561               6.33709               7.15052
   AR                   20.70918              29.19597              11.44248
   AR                   62.37539               2.55509               0.10864
   AR                   54.95475              44.70158              44.02303
   AR                   26.50075              12.72367              31.17991
   AR                   75.17418              38.53703              46.78838
   AR                   58.52057              29.95580               7.05088
   AR                   77.81797               4.84407              50.82740
   AR                   75.10222              45.10316               1.78096
   AR                    9.71256              13.84229               4.90079
   AR                  102.20462               5.50061              20.27742
   AR                  103.81979              22.29753              10.33154
   AR                   78.78141              50.10749              27.70954
   AR                   78.63309              30.79464              27.41612
   AR                   84.44673              38.62793              27.58551
   AR                    1.15653              20.85500              15.46421
   AR                   94.92974              13.81760              30.14724
   AR                   53.55644              32.10716              18.67015
   AR                   28.28505              28.15296               1.79216
   AR                   74.94677              36.70246              26.42152
   AR                   64.18950               4.75901              40.86313
   AR                   77.28417              11.03176              35.60618
   AR                   55.96502              46.95720              16.33946
   AR                    7.52751              26.66615              12.24522
   AR                   11.12196              16.76491              30.04494
   AR                   58.82281              19.14750              35.16162
   AR                   94.82956              38.51834              40.75268
   AR                   79.83205              35.45045              48.18614
   AR                   99.50267              25.15732              27.69172
   AR                   14.44677              34.55578              27.00833
   AR                   67.53491              24.99934              19.31951
   AR                   96.18622              20.02009              29.64862
   AR                   56.79311              50.82231              35.11072
   AR                   55.82775              16.72885              18.74069
   AR                   73.75653              45.41553              33.09572
   AR                   94.70366              49.26691              43.63430
   AR                   75.25104              23.12156              43.69437
   AR                   59.99536              25.82864              23.42114
   AR                   70.76522              28.81991              50.57071
   AR                   94.04764              14.03565              20.51924
   AR                   79.29970               9.91921              20.92875
   AR                   53.80262              23.66414              26.88331
   AR                   77.69374              18.29178              19.10673
   AR                   95.00109              31.96347              38.38537
   AR                   89.55008              27.58981              42.79613
   AR                    2.30897              10.64290              14.64498
   AR                   77.50968               6.17096              15.29724
   AR                   66.20872              21.83344              26.56557
   AR                  103.01257              14.82442              39.40082
   AR                   74.98288               5.23948              30.71793
   AR                   79.23359              44.41252              10.15962
   AR                   13.22639              25.64728              18.25986
   AR                   28.51143              17.35649              20.54517
   AR                   91.97239              43.49409              36.42102
   AR                   69.75680              13.33042              22.62572
   AR                  103.57993               1.85455              26.49046
   AR                   61.63447              30.22169              23.33120
   AR                    1.60885              26.60122              26.73295
   AR                   56.24475              47.37449              42.21706
   AR                   57.62816              16.38659              24.66609
   AR                   81.34168              22.13757              39.78525
   AR                   76.57802              14.98595               4.48887
   AR                   87.25777               3.22842              23.13605
   AR                  100.19222              44.74517              19.65340
   AR                  103.60099              31.15172               1.22452
   AR                   67.04149              18.23107              40.52566
   AR                   62.49831              29.84959              37.26072
   AR                  100.90285              41.46968               2.67479
   AR                   91.88750              24.37701              21.11062
   AR                   90.82826              40.76801              45.97467
   AR                   10.06738              18.45006               1.72407
   AR                   54.50073              36.04693              22.13709
   AR                    9.63721              26.07586              19.40598
   AR                   19.97009              29.15116              15.06891
   AR                   69.66614              50.78165               9.68762
   AR                   83.73028              38.95469              16.51193
   AR                   85.98036              39.43518              20.45224
   AR                   75.10050               2.88193              44.42676
   AR                    8.20679              15.82710              22.95589
   AR                   95.43429               5.00208              41.40458
   AR                  103.86173               3.24199              38.51743
   AR                   85.09097              42.73764              15.44047
   AR                   99.41446              30.12856               6.25018
   AR                   69.97188              23.70349              23.72224
   AR                   87.56575              15.46827              50.19551
   AR                   69.21266              15.61823              44.71084
   AR                   69.51074              31.61269              29.72260
   AR                   86.99472              45.39058               1.60689
   AR                   90.51959              32.30675              34.18402
   AR                   65.59538              29.07089              11.57979
   AR                   12.61351               7.86991              30.42352
   AR                   95.49244              13.51575              34.01331
   AR                   85.37002              23.32865              50.15445
   AR                   68.22332              38.50104               2.14008
   AR                   55.01372              10.70071              16.31064
   AR                   79.36344               7.61150              49.39014
   AR                    5.44792               0.26856              16.01849
   AR                   99.78240              39.86064              11.01267
   AR                   76.99364              18.32199               5.11455
   AR                   98.61206              36.76405              45.44386
   AR                   98.25378              46.04871              31.90451
   AR                   85.93948               7.71030              35.48967
   AR                   97.56607               0.21717               1.28391
   AR                   86.31961              36.97441              30.05574
   AR                  102.73310              11.91630              49.80434
   AR                   64.27988               9.83071              18.20565
   AR                   83.80184              20.61879               3.48741
   AR                   16.57761              27.52984              16.42984
   AR                   94.02752              13.58570              25.22816
   AR                   35.54498              31.91728              30.68253
   AR                   16.25892              34.48542              15.83966
   AR                   34.12980              16.97068              23.11794
   AR                   89.78242              16.25212              32.77828
   AR                   77.32135               1.54385              30.71775
   AR                   71.19363              30.01250              10.52511
   AR                   60.25044              46.50734              44.66878
   AR                   68.32795              28.06928              23.39942
   AR                    7.96418              14.88213              13.01149
   AR                   71.40358              48.22961               4.16927
   AR                   82.02925              27.59467              34.93823
   AR                   27.75956               1.49759              24.52933
   AR                  103.16275               4.22003              34.05127
   AR                   87.03300               5.31394              42.89532
   AR                   69.09643              20.70965              47.81822
   AR                   57.98138              10.58703              13.12924
   AR                    3.05676              27.71572              29.81374
   AR                   95.77068              26.04836              31.36754
   AR                   35.09468              31.38252              14.02725
   AR                   71.21083              44.88682              49.03129
   AR                   53.99237              24.22723               5.42141
   AR                   32.52134              12.56108              22.73040
   AR                   76.26823               2.13424              15.11348
   AR                   74.37195              39.71997              38.04290
   AR                   98.27545              45.52783              27.10081
   AR                   98.46122              16.57164               1.66802
   AR                   77.62951              20.02618              16.05195
   AR                   15.86499              22.00298               4.81840
   AR                   97.80304              50.78083              31.14263
   AR                   26.68934               0.24114              29.41416
   AR                   83.07847              18.24480              26.88358
   AR                    1.17531               4.59684               8.17199
   AR                   27.95795              21.81039              12.60882
   AR                    6.02536               8.54622              19.41707
   AR                   58.40719              24.61521              12.11704
   AR                   84.75221               9.91883              42.11103
   AR                   31.27255              32.96665               4.00837 FRACTIONAL
   AR                  103.22323              33.02297               4.80314
   AR                   12.39891              34.21158               8.93333
   AR                   98.37739               8.61104              41.16310
   AR                   71.68325              26.42866              34.21518
   AR                   89.11278              35.86967              28.66609
   AR                   99.36576               0.84925              48.47464
   AR                   89.32807              19.08969              49.65568
   AR                   96.83302              23.30645              26.73051
   AR                   72.28902              26.77656              21.00250
   AR                   56.96962              41.78513              45.22640
   AR                  102.15612              25.97674              16.29668
   AR                   89.22800              16.68681               4.82875
   AR                   99.75920              35.77523              28.08471
   AR                   69.91901              16.05301              20.76367
   AR                   94.74086              32.05181              23.43712
   AR                    0.82921              34.05092              25.20585
   AR                   55.46980              27.69005              22.06573
   AR                   55.09047               9.41162              24.51890
   AR                   22.93665              31.11896              20.15303
   AR                   31.67697              20.97482               8.15110
   AR                   73.30778               2.91786              41.29785
   AR                   11.85924              10.12477              11.32159
   AR                   54.21967              13.69117              12.50487
   AR                   78.64246              43.60352              27.77430
   AR                   56.55153              19.28376              26.11359
   AR                   11.92080              16.42408               3.55539
   AR                   19.64416              31.64598              27.14633
   AR                   81.46878              23.28353              23.27868
   AR                  100.90266              28.64072              19.74322
   AR                   57.06952              25.04801              15.46196
   AR                   56.84665               6.35457              16.70697
   AR                   71.30272              40.99090              44.56475
   AR                   99.63714              42.97461              45.88468
   AR                   85.33987              33.95924              37.00894
   AR                  101.11727              35.86990              10.63435
   AR                   73.26960              14.80502              24.55803
   AR                    6.17731              30.87386              24.09213
   AR                   69.83470              39.78766              21.65001
   AR                  103.08341              27.33030              26.52420
   AR                   28.70582              12.53742              33.78316
   AR                   57.88911              45.47644              47.55118
   AR                    6.06789               9.20758               4.98799
   AR                   74.07660               2.71445              23.99180
   AR                   68.39597              28.82937              19.76876
   AR                   97.99907               8.09346              20.23898
   AR                    7.02180              11.87425              27.71745
   AR                   98.93638              28.36740              28.15795
   AR                   10.13469              26.74411              14.46088
   AR                   74.09094               2.72348               3.60802
   AR                   27.33678              21.89098               1.72189
   AR                  100.26905               3.15089              46.32822
   AR                   29.12529              22.96204               5.12968
   AR                   87.54923              25.49937              14.05997
   AR                   11.72502              19.94583              31.69606
   AR                    6.51462               7.21607               7.55504
   AR                   72.15936              38.47635              40.92200
   AR                   99.19929               8.42587              31.86518
   AR                   30.93901              29.00848              13.69834
   AR                   92.58802              18.96620               2.05183
   AR                   90.08035              30.49684              16.07774
   AR                   73.89414              13.69202              10.20402
   AR                   61.57931              38.81639              43.50549
   AR                   19.97489              20.00266              30.82528
   AR                  102.00657              11.44186              16.33676
   AR                    6.92968               9.21885              24.93369
   AR                    3.65307               0.37949              11.71654
   AR                   18.54364              12.11238              24.96237
   AR                   31.00197              16.74709               8.57072
   AR                   93.48906               5.21857              44.68631
   AR                   78.42989              36.16314              24.86316
   AR                   54.22357               9.36300               6.01596
   AR                   18.98807               8.53656              24.54942
   AR                   29.55786               6.32874               2.67919
   AR                   77.15161              50.24568              49.17860
   AR                   63.71404               7.33229              27.15700
   AR                   88.68758              17.73513               1.72287
   AR                   93.84760              25.86321              49.97983
   AR                    3.04908              10.18229              20.77110
   AR                   94.19321              39.20733              35.62468
   AR                    5.38202              16.16896              11.39074
   AR                   81.15071              40.93251              29.15875
   AR                   88.03614              30.02512               7.85226
   AR                   74.98832              27.59048              43.02246
   AR                   75.98726              34.17991              40.34082
   AR                   33.23733              25.81272               8.18911
   AR                   80.54721              44.67007              24.07070
   AR                   69.55311              37.76546              46.95000
   AR                   87.16627              10.98286              49.76419
   AR                   59.27255              18.02427              18.77603
   AR                    4.50563              29.62605              27.19617
   AR                   22.02528              31.65753              24.91446
   AR                   33.19174              15.22232              35.57671
   AR                   70.83805               1.98342              26.37330
   AR                   82.12691               0.05927              10.96141
   AR                   95.06732              25.46511              23.19889
   AR                   61.60059              11.04622              25.38214
   AR                   61.60948              22.32095              31.25727
   AR                   18.20851               9.28740              34.94493
   AR                   19.16340              33.86109              17.70656
   AR                   61.48887              16.64558              33.96678
   AR                   94.70709              47.06794              28.44153
   AR                   74.39896              34.61749              12.22203
   AR                    5.32106              17.34936              21.56403
   AR                  100.20825               5.66434               4.25327
   AR                   56.81442              35.01669              45.20518
   AR                   32.56990              23.34949              27.74025
   AR                  102.31731               0.11110              30.24524
   AR                   63.57106              23.22833               0.15773
   AR                   77.09859              18.70915              26.85705
   AR                    3.86856              12.10569              34.25075
   AR                   71.57134              19.05925              17.31793
   AR                   29.63056              35.64715              27.56975
   AR                   57.88914              25.09555              32.06223
   AR                   83.36493              20.14975              23.66890
   AR                   71.02812               1.16357              44.24357
   AR                    5.76038              17.84207              14.61601
   AR                   98.02220              31.04598               0.65258
   AR                   29.44984              22.40965              26.08753
   AR                   77.84592              20.68959              48.07714
   AR                   29.38391              18.60833              24.97596
   AR                   89.53268              34.64667              47.22654
   AR                   24.36335              10.95847               2.58364
   AR                   26.13498               5.64218               0.18177
   AR                   70.58544              24.26884              17.88544
   AR                   84.54803              31.56186               3.82139
   AR                  104.12098               3.10665              17.50038
   AR                   98.37335              29.79671              24.77670
   AR                   21.76482               2.75032              23.18059
   AR                   29.65043              13.42755              14.34228
   AR                   20.54950               1.05727              29.92107
   AR                    9.46161              28.73188              30.74083
   AR                   98.64988              11.07477              22.42223
   AR                    3.85880              32.94349              22.08804
   AR                  101.28416              34.48823              43.80640
   AR                   95.15623              10.82526              22.70699
   AR                   59.20409              18.52706               8.99396
   AR                   10.91666              19.43639              15.00417
   AR                   65.49731              35.36272              34.19489
   AR                   31.02701              15.65000              29.59802
   AR                  102.31218              31.40035              15.88362
   AR                   60.64224              33.55165              11.30575
   AR                   26.73768              14.37247               9.89743
   AR                   87.10050              29.99910              35.17715
   AR                   12.11458              18.90918               6.41932
   AR                   86.97708              48.71139              19.41981
   AR                   94.79770              11.51912              37.39478
