       301
            32.30535            63.24278
   AR                   78.06877              34.12374              33.44251
   AR                  101.98056               9.38432              27.12250
   AR                   24.46463               3.07714              24.58032
   AR                   73.22448              17.29728              44.36140
   AR                   86.33822              35.01223               7.51307
   AR                   84.25628              14.53948              32.49819
   AR                   66.20860              34.18113              24.73461
   AR                   76.38908               0.27050               0.65367
   AR                   58.06571              28.23411              32.62635
   AR                   92.67593              28.40161               3.16671
   AR                   96.83288              57.78342               5.42268
   AR                   99.57492               2.69262              40.43231
   AR                   60.03843              56.26381              26.09689
   AR                  103.27370               4.66780              56.55266
   AR                   13.38126              32.04240               6.92610
   AR                   90.25709              57.53883              52.31052
   AR                   59.96065              33.06653               4.94388
   AR                   84.87756              15.73009               2.28911
   AR                   96.79656              18.64119              50.65817
   AR                   66.56533              14.17028              41.31317
   AR                   16.44593              23.57596               6.80539
   AR                   81.09272              44.11106               0.07505
   AR                    4.37262              28.29318              22.42725
   AR                   57.68204              11.99924              53.47065
   AR                   52.01363              20.72286               6.10243
   AR                   97.40869              36.80751              14.46168
   AR                   84.95458              21.84660              17.90857
   AR                   82.95231              43.40909              10.11575
   AR                   91.18954              28.52537              46.57584
   AR                  110.52081              12.19085              28.22276
   AR                   50.73637              21.47616              17.67224
   AR                   69.23909              48.60661              52.76442
   AR                   81.94730               1.83287              31.12089
   AR                   55.47011              29.58590              62.04456
   AR                   98.41581              16.13227              32.40972
   AR                   90.54587              53.61113              41.12498
   AR                   52.82438              48.72494              23.33480
   AR                   98.17576              38.23323              31.52834
   AR                   81.83520              43.08561              14.26032
   AR                   80.16058              27.49600              20.62928
   AR                   84.76552              21.94128              40.38165
   AR                   26.82410              23.40200               9.16930
   AR                   98.03584               4.98178              55.48444
   AR                   79.30193              21.10455              16.75429
   AR                   96.54459              40.05490               3.81189
   AR                   91.12103              57.63288              37.35567
   AR                   81.83849              45.62089              47.53671
   AR                   99.32496              30.65590              49.96817
   AR                   62.41297               0.33687              19.10971
   AR                   52.30293              52.08542               0.13940
   AR                   97.94713               6.61469              48.15408
   AR                  107.72010              10.89875              25.66553
   AR                   70.65206              53.44683              17.25835
   AR                   64.94471              58.91215              24.90950
   AR                   55.85847              62.88006              12.57115
   AR                   87.53754              52.50398              39.81836
   AR                   67.57823              19.58751              47.01232
   AR                   83.21859              12.50063              18.77928
   AR                  103.89599              13.97469              32.57822
   AR                   55.29918              33.52323              53.68028
   AR                   76.64841              33.99489               6.73840
   AR                   69.38948              32.47745               6.21711
   AR                   87.91498              24.93124              30.22085
   AR                   85.47378               0.96598              56.16219
   AR                   73.46449              49.86683              37.62321
   AR                   65.55541              11.07569              39.07797
   AR                  111.52104               6.72813              20.60225
   AR                   76.34460              27.36429              40.85624
   AR                   16.22430              13.62071               8.72586
   AR                   70.07931              17.78056              62.61329
   AR                   90.18394               8.67891              39.96300
   AR                  104.01362              32.70163              39.85691
   AR                   72.21477              37.91266              50.15609
   AR                   98.15647              40.64947               0.66097
   AR                   16.25180               4.68768              20.13717
   AR                  106.80442              28.83365               6.85127
   AR                   92.06557              42.57863               3.17203
   AR                   74.59856              36.64243              27.91575
   AR                   76.13539              15.27937              44.09503
   AR                   93.72594              28.65129              18.62678
   AR                  102.47068              10.94713              49.16027
   AR                  108.24377              49.27512              10.48549
   AR                    8.18062               0.83554               0.47415
   AR                   59.28609               2.50423              26.04517
   AR                   61.36996               9.23130              62.90311
   AR                   68.11223              57.02700               6.19657
   AR                  101.09089              30.62456              41.57566
   AR                   27.06203               1.35347              15.80766
   AR                   82.65282              26.08267              17.57894
   AR                   25.84434              27.38686              28.58250
   AR                   86.94782              55.37399              28.87382
   AR                   27.60684               2.53556              24.38741
   AR                   78.94020              23.98458              21.85921
   AR                   75.97545              20.12486               8.70600
   AR                   13.88030               2.90111              28.11645
   AR                   73.65056              44.31301              53.04269
   AR                   92.46531              20.86045              30.82102
   AR                   87.73753              40.21245              10.98048
   AR                   90.44251              46.32573              25.51769
   AR                   88.90812              28.68317              41.25617
   AR                   84.68165              19.60924              28.77542
   AR                   53.11615               9.79243              57.69771
   AR                   97.84632              32.35445              52.67373
   AR                   94.72941              60.80631              30.07297
   AR                   56.31669              27.26597              16.42120
   AR                   76.23907               4.80389              58.71902
   AR                   52.34754              61.86570               0.04591
   AR                   63.79219              18.58896              61.05762
   AR                   48.47278               2.21161              35.60260
   AR                   89.05800              32.72568              12.07174
   AR                   67.09923              36.90107              60.40523
   AR                   56.77987              31.53321               2.86665
   AR                   80.70800              52.37428              26.32873
   AR                   94.45633              47.08389              53.47502
   AR                   72.78570              39.16354              34.62210
   AR                   80.98718              38.15251               7.40449
   AR                   64.53140              13.09568              49.79672
   AR                   69.00759              19.75669              34.15605
   AR                   61.03891              12.53684              47.31322
   AR                  101.77194              29.47274               0.98611
   AR                   80.42628              40.74991              61.27344
   AR                   94.81479              58.71971              16.34047
   AR                   76.45875              30.88488              27.07466
   AR                   90.45902              21.12018              54.05567
   AR                  100.60173              37.29362              51.10449
   AR                   95.83196              31.77643              58.16767
   AR                   67.08083              49.13268              57.88061
   AR                   83.04576               6.11468              51.85014
   AR                   89.53922               6.28933              24.04779
   AR                  100.10664              43.04974               2.36948
   AR                   55.43085              16.85026              13.87441
   AR                   91.00184              55.33306              34.66454
   AR                   93.82100              56.89845              50.98371
   AR                   73.14482              56.29519              21.89067
   AR                   96.49368              28.99871              15.29246
   AR                  101.86432               3.17565              12.22756
   AR                   60.53752              58.96655              34.87513
   AR                   98.37685              15.01440              54.89601
   AR                   93.48098               3.83795              33.05095
   AR                   90.20099              16.74483              41.39702
   AR                   73.04049              25.45477              37.62100
   AR                   82.29165              23.87121              53.53809
   AR                   68.46845               3.07536              21.36117
   AR                   95.94040              52.90357              62.42269
   AR                   99.30346              19.12302              18.93164
   AR                   73.47138              49.58778              57.36919
   AR                  111.44195              58.18377               9.55090
   AR                   53.83319              24.61668              24.94797
   AR                   88.56776              25.35475              12.38836
   AR                   70.47736              58.44702              43.96742
   AR                   99.32144              24.17433              37.26552
   AR                   53.42996              60.60410              22.89876
   AR                   66.33038               5.55383               5.26089
   AR                  108.44931              49.56294              50.78090
   AR                   73.90235              29.18166              17.78717
   AR                   56.97989              13.79491              43.60799
   AR                  104.49595              42.97234              59.15368
   AR                   70.29275              38.66905              55.71925
   AR                   88.78614              38.26523              13.75465
   AR                  101.78976              24.96866               9.28040
   AR                   94.35079              28.57889               8.25146
   AR                   94.77827              57.74403              19.96863
   AR                   62.55276              18.86492               3.72268
   AR                   74.26226              54.09956              39.63955
   AR                   75.17721              39.03177              49.34421
   AR                   84.23603              51.15315              32.99144
   AR                  102.64632              57.22615              57.80770
   AR                   97.17855              24.08718              16.67629
   AR                   49.54533              10.04252              12.90560
   AR                   96.25906               4.78460              37.84502
   AR                   53.28656              45.75658              59.17873
   AR                   77.49147              25.31742               6.43615
   AR                   75.45386              10.81695              37.59717
   AR                   84.26521              50.62120              37.87946
   AR                    8.71576              12.96715              16.52897
   AR                   73.49340              38.00125              10.60939
   AR                   93.06744               6.39593               1.34824
   AR                   72.45129              30.46342              43.97506
   AR                  107.12018              55.16880              52.32613
   AR                   92.87720              59.13120              58.85226
   AR                   62.13002              12.06133              60.00179
   AR                  100.51782              20.15507              23.27187
   AR                   75.22979              11.14525              42.22306
   AR                  100.01856              20.95475              43.87926
   AR                   86.96360              18.80240              57.61192
   AR                  109.43032              12.82763              50.84866
   AR                   99.84862              39.39214              53.86751
   AR                   50.43770              60.94999              10.90403
   AR                  102.84969              32.92902              54.75374
   AR                   51.94489              33.84169              47.52162
   AR                   85.68099              31.42629              58.26940
   AR                   97.99817              52.11018              56.40857
   AR                   61.44644              17.67789              36.53075
   AR                  108.20537              19.87011              56.86269
   AR                   79.53890              22.14254               7.88711
   AR                   75.51793              61.25780              42.65303
   AR                   73.76704              20.38174              36.70865
   AR                   70.01151               1.69267              62.19545
   AR                    7.76272              22.26153              15.11115
   AR                   82.97956              56.24157              60.46728
   AR                  111.54755               4.93081              51.87180
   AR                   93.54610               6.40517               6.13889
   AR                  104.60903              38.99361              21.64305
   AR                   49.69376              35.72843              42.50275
   AR                  104.17952              42.86709              12.68156
   AR                  111.33107              24.41548              60.79925
   AR                   88.42213              39.92154              18.04475
   AR                   74.75027              46.46651              37.75697
   AR                   75.92205              49.37825               1.06981
   AR                   76.70547              23.56486              48.19071
   AR                   77.56126              22.67858              24.64253
   AR                   76.84891              57.09735              13.37678
   AR                   51.12142              40.02928              49.15897
   AR                   50.37147               5.27102              46.67809
   AR                  107.21243              48.20034              56.74576
   AR                   93.87085              26.30305              38.61266
   AR                    1.55135              24.13133              19.61744
   AR                  101.15062              62.90704              60.93194
   AR                   61.05669              29.92725              34.65934
   AR                   50.12346              37.81664              53.30815
   AR                   53.12449               2.91387              45.07928
   AR                   77.00253              60.93836              34.93165
   AR                   74.25575              15.01327               7.13812
   AR                   99.87089              10.03194              45.61340
   AR                  108.95775              58.41134              35.37438
   AR                  103.32408              10.92062              23.09959
   AR                   88.60017              35.26797              38.11882
   AR                   87.35814               6.82191              43.97669
   AR                   58.13431              58.48838              30.28495
   AR                   20.67422              15.66338               8.86414
   AR                   24.19298               9.79716              27.04810
   AR                   15.66531              17.95482              19.58807
   AR                   92.28781              34.85441              42.01499
   AR                   58.52593              14.50204              37.29193
   AR                   71.69766              11.90838              37.43173
   AR                   63.53071               4.59273              55.69287
   AR                   50.14960               3.53006              62.59432
   AR                   64.89123              29.81963               2.99245
   AR                   55.34494              46.69258              36.90267
   AR                   29.49928               8.58948              10.06637
   AR                   49.66478              29.14365              53.87508
   AR                  104.22757               4.92571               2.96111
   AR                  105.89977              35.77023              52.90237
   AR                   67.40825              59.64343              19.72487
   AR                  110.45412               1.45802              59.73766
   AR                  102.27807              19.06415              41.43165
   AR                   21.97835              11.89106              29.58785
   AR                   64.41132              39.20370              55.71460
   AR                   99.00551              34.91802              45.42658
   AR                   59.51601              46.56247              10.28504
   AR                   99.63898              52.43915              32.30021
   AR                   73.46404               7.38100              46.34018
   AR                   54.73903              50.41374               8.20765
   AR                  101.59664               6.13203              45.17799
   AR                   90.59394              53.96424              47.99085
   AR                   67.13789              59.30983              34.49572
   AR                   66.47527              50.06840              25.87959
   AR                  105.00813              29.04460              14.56342
   AR                   91.58719               0.76304              24.72381
   AR                  107.29267              62.99534              43.04446
   AR                   49.77594              11.10161              43.71402
   AR                   20.16644              21.94367               9.13570
   AR                   48.72584               4.85179              40.98649
   AR                   85.29545              58.95241              29.14431
   AR                   21.49597              23.22037              14.74983
   AR                   22.54843              22.58239              19.29014
   AR                  101.51549               0.16012              20.06384
   AR                   69.98405               4.76586               1.29023
   AR                   93.01515              33.48549              15.25473
   AR                   82.12373              16.93136              22.25648
   AR                  101.33414               2.03830              37.09214
   AR                  109.45849              34.70350               9.51560
   AR                   81.39184              45.42666              34.00058
   AR                  100.09692              10.35806              53.33158
   AR                   86.64547              56.36834              15.24281
   AR                   97.79623              27.81215              11.44390
   AR                   52.91168              32.30629              58.14165
   AR                   29.75684              22.34457               1.43695
   AR                   51.51876              62.78880              36.76003
   AR                  102.35342              25.88328              44.34128
   AR                   69.77819              54.81796              24.69424
   AR                  101.01593              33.71825              39.84675
   AR                   79.74110              27.51767              23.96346
   AR                  101.96558              39.12814               4.78410
   AR                  108.85203               0.94533              37.80817
   AR                  110.32156              63.04050              22.12379 FRACTIONAL
   AR                   78.49526               1.95930              33.92834
   AR                   54.33488              26.53732              21.93725
   AR                   60.24689               7.29435               7.90067
   AR                   96.70240               4.65102              30.23746
   AR                  108.45648               7.94430              60.83749
   AR                   54.47174              43.95504              56.22352
   AR                   87.51356              24.12537              16.46925
   AR                   95.84175              28.44328               2.86352
   AR                    9.44056              23.49178              11.43654
   AR                   68.63722              48.01242              48.33847
   AR                   68.12386              51.85185              45.05625
   AR                   54.20060              12.60987              62.46276
   AR                  110.00767              60.18866              38.31294
   AR                   83.88353              52.49457              55.99797
   AR                  107.43196              18.69215              27.01906
