       321
            34.47871            55.68681
   AR                   26.10928              23.40220               5.03114
   AR                   51.97788               5.70743              42.63119
   AR                   14.96583              14.39217              11.76229
   AR                   60.75361              48.12573              30.97284
   AR                   90.31132              54.04043              45.88199
   AR                   58.85452              26.79178              42.31880
   AR                   33.98740               6.63894              33.18660
   AR                   53.55205              11.22463              46.64681
   AR                   27.21474               5.04816              25.23036
   AR                  104.65838              28.60667               3.22159
   AR                   76.78650              22.08491              26.52590
   AR                   76.49864               5.47513               3.57748
   AR                   71.11897              32.80125               6.76571
   AR                   80.59458              46.34306              29.91278
   AR                   58.84479              16.77930              43.90452
   AR                   93.51625              33.36813              27.49060
   AR                   85.39620               5.30324              50.80658
   AR                   84.51381              42.76754              40.82909
   AR                   85.65964              23.58758              54.31420
   AR                   54.33355              32.40157              51.09904
   AR                   18.22263              25.43728              22.28796
   AR                   68.73455              52.50427              52.64708
   AR                   62.21228              12.68689              49.97988
   AR                   25.43078               0.67354              10.85220
   AR                   72.93603              17.14372               8.63750
   AR                   74.34790              14.65407              43.93016
   AR                   60.89663              22.36172              20.64539
   AR                   93.72238              37.71615              23.24977
   AR                   98.16843              30.55732              41.30053
   AR                   96.72188              43.04525              26.38073
   AR                   93.32267              40.87120              32.03392
   AR                   24.14498              25.97334              19.08050
   AR                   55.63581              28.30356              48.68170
   AR                   79.01165              47.54854              39.98169
   AR                   65.53168              37.73494               0.82837
   AR                  107.18396              49.64906               6.56818
   AR                   76.79793               7.50550              53.98777
   AR                   62.68683              30.88719              50.47071
   AR                  105.59786              21.26483              18.19336
   AR                   88.72180              49.51673              35.73028
   AR                   76.63614               4.10571               0.61298
   AR                   10.18761              12.66449              14.66985
   AR                   71.45780              42.78771               5.30009
   AR                   58.52475              37.71379               6.79943
   AR                   73.64744              54.70529              52.20944
   AR                  103.69831               3.36504               8.73758
   AR                   92.82460              24.13140              33.95756
   AR                  105.18815              12.87617              18.23304
   AR                   92.86396               7.39453              34.66492
   AR                   82.19018              27.79479              11.43096
   AR                   72.50659              11.26239              53.13730
   AR                   68.12760              15.74018              47.15259
   AR                    9.26390              26.28189              27.16021
   AR                   13.57778               5.29540               3.91808
   AR                   88.43691              33.56182              35.33039
   AR                    9.74635              28.37406              21.36094
   AR                    3.08037              21.32597               9.89688
   AR                   64.26809              10.12321              49.23194
   AR                   61.78247              40.57935              11.29792
   AR                   63.51740              47.19404              24.94410
   AR                   53.28099               9.44251              25.31365
   AR                    2.92100              23.07295              22.67884
   AR                   20.41427              14.45137              31.99312
   AR                   75.45928               8.48726              47.78347
   AR                   90.89084              19.07710              13.71148
   AR                    0.84367               5.62216              30.05705
   AR                  103.88418              17.43030              43.21056
   AR                   62.58675              29.31983              18.15962
   AR                   92.04103              50.15033              20.84336
   AR                   70.67736              33.07896              37.93697
   AR                   92.47666              18.76841              53.38350
   AR                   19.08928               2.55160              22.95418
   AR                    4.78933              12.64982              14.20454
   AR                   62.40111               5.82486              43.78021
   AR                   56.74352              29.72987              43.72861
   AR                   69.70918              10.84121               3.81594
   AR                   29.81902              20.07624              21.50573
   AR                   71.60048              24.78775              43.34104
   AR                   78.25163              16.60325              23.73015
   AR                  106.13354              53.87681              44.24487
   AR                   77.90629              35.11458              49.15843
   AR                   72.09667              15.58340              51.69128
   AR                   26.81763              22.64633              30.33311
   AR                   82.83704               8.39155              31.76136
   AR                   61.33731               3.98735              37.30338
   AR                  103.83637              20.80607              35.53003
   AR                   72.85463              18.98075              29.31634
   AR                   67.47231              36.77177              17.18333
   AR                   95.76779              27.83620              35.71464
   AR                   77.00595              16.95903              40.20661
   AR                   65.21324              22.26158              37.12554
   AR                    2.37549              21.65632              26.95814
   AR                   62.21222               7.75457              28.60507
   AR                   62.01544               6.14055               8.79191
   AR                    8.83767              21.63915               6.05731
   AR                   55.29809              27.17632               4.22088
   AR                   12.28361              24.04924              31.42191
   AR                   60.54239              14.68635              24.30777
   AR                   78.93921              27.46634              26.11978
   AR                  104.82182              15.39032              14.24694
   AR                   76.50762              49.25119              33.91632
   AR                   80.71310              14.43506              19.51914
   AR                   80.88666              45.21596               6.67066
   AR                    3.67085              27.18990               4.19375
   AR                   29.37768               1.40869              33.48544
   AR                   87.61450              39.88104               1.20512
   AR                  104.04783              21.37665              45.18359
   AR                   79.49303               9.72329              11.74057
   AR                   97.73327              50.60109              43.21693
   AR                   59.30545              53.63520              51.76840
   AR                   32.38267              13.67208               0.80683
   AR                   78.94930              41.44060              38.71706
   AR                   52.18585              34.43766              31.00425
   AR                   60.62502              45.36688              55.60799
   AR                   90.30692              15.47163               1.07915
   AR                   57.49490              21.49797               0.12923
   AR                  104.31354              17.79724              18.02456
   AR                    7.98663              12.84591              11.97178
   AR                   62.47845              33.87643              28.43501
   AR                   70.69292              24.02029              50.75067
   AR                   89.38621              28.78716              28.51328
   AR                   67.24653               8.22285              25.56446
   AR                   65.24910              15.87232              33.89571
   AR                   82.66311              48.21141               5.12555
   AR                   77.39008              43.84603              16.65592
   AR                   10.48224               0.18923              20.19029
   AR                   17.89075              26.39554               1.73192
   AR                   61.56459              50.63502               2.76892
   AR                    2.51030              17.90250              25.28790
   AR                  101.05943              23.50485              32.35410
   AR                   79.92510              54.00635              18.13888
   AR                   93.81229              53.75362               7.49300
   AR                   64.66754              26.93409              35.38639
   AR                   83.95360              32.54991               5.55277
   AR                   55.93243               1.23831               5.77314
   AR                   72.60263              53.33655              48.78420
   AR                  102.88237               9.67575               9.33634
   AR                   84.69728              50.63636              44.10182
   AR                   99.70026              23.21702              28.23683
   AR                   55.97743               8.22065              35.17524
   AR                   52.09513              42.15011              27.59189
   AR                   71.23165              53.04093              45.64578
   AR                   88.57674              40.26785              25.87986
   AR                  104.32598              29.57488               9.96860
   AR                   70.23068              43.33771              43.70851
   AR                  102.29378              43.00892              54.47306
   AR                    9.62622              31.41143              28.79592
   AR                   77.60885              10.17218               5.79670
   AR                   10.37393              22.03578              34.31780
   AR                   71.01813              27.40234              22.65511
   AR                    9.37354               5.22268              19.07611
   AR                   52.11815              43.11712              21.35059
   AR                   31.40513              27.65320               4.87914
   AR                   52.95698              29.34967              31.09457
   AR                    7.41396              31.35481              12.71707
   AR                    6.43218              20.59223              11.59313
   AR                   82.32946               3.52642              17.45670
   AR                  103.37962              20.34284               3.96168
   AR                   96.36026              38.68134              50.66160
   AR                   78.20125              22.77414              37.33282
   AR                   76.81062              32.24093              47.43135
   AR                   85.56772               3.02859              44.21957
   AR                   76.53206              41.19520              18.91679
   AR                   99.05897              11.67173              51.95632
   AR                   86.33499               2.48569               7.68766
   AR                   69.21878               2.61060              29.45832
   AR                   68.39038              17.78446               3.40119
   AR                   95.62406              52.16037              23.84668
   AR                  105.29258              45.55782               6.91021
   AR                   84.50842              22.94084              12.45072
   AR                   59.30303              25.56176               3.49580
   AR                   70.27437               6.94649              28.54451
   AR                   96.30824              54.40669              47.35822
   AR                    0.89799              16.15520              28.00858
   AR                    4.58774              14.41433              32.88802
   AR                  106.23091              36.53560               5.31762
   AR                   71.03545              10.45809              40.75358
   AR                  102.22026              31.27385              28.99186
   AR                   58.27894              32.41463              31.26888
   AR                   91.95710              15.31770              15.42710
   AR                   87.51435              46.96034              21.22417
   AR                   21.07517              14.58074              25.58494
   AR                   94.43142               8.57931              17.52935
   AR                   73.22849              37.07618              40.06800
   AR                   15.03772              31.45949              23.00276
   AR                   54.03232              22.05510               2.34482
   AR                   21.69061              24.16784              25.32090
   AR                   85.68837              20.21959              54.29106
   AR                   61.53717              38.95610              39.45719
   AR                   94.51303               5.47962               0.32537
   AR                   54.40963              31.70777              20.35945
   AR                  105.89944              18.02437               4.09700
   AR                   61.47568              26.00784              26.86868
   AR                   63.79714              30.05259               4.90756
   AR                   99.02344               6.56266               9.34030
   AR                   64.75987               5.60879              14.44742
   AR                   84.18872              54.99943              45.23987
   AR                    7.30725              27.27688              24.63833
   AR                   94.35843              45.11901              30.71118
   AR                   57.62377              36.61639              34.77222
   AR                   69.35233              19.33352              19.19836
   AR                   52.62227              39.73882              32.17630
   AR                   66.43688              24.16170               9.24469
   AR                   98.84713              14.87028              32.62491
   AR                   82.54860              24.46388              17.65719
   AR                   77.81131              54.37308              34.93090
   AR                   79.98048              23.18348              20.27415
   AR                   71.76655              20.45222               7.72418
   AR                   98.08706              10.87932               4.92366
   AR                   98.87542              49.00938              46.74466
   AR                   57.91352              34.18414              46.82765
   AR                   94.81587              50.27947               9.76687
   AR                   60.77536              23.25080              54.34470
   AR                   28.59949              13.33518              20.53424
   AR                   60.73909              28.65160              48.49741
   AR                   66.52289              34.30686              44.82712
   AR                   75.20822              25.84034              11.69809
   AR                   77.01436              20.51052              22.53634
   AR                  106.25557              20.64206               7.63129
   AR                  103.38607              31.14362              32.32441
   AR                   20.56301               8.96014              25.30729
   AR                   82.24032               1.60439               7.01434
   AR                   57.39461              28.43994              39.29602
   AR                   31.23420              17.48182               9.19150
   AR                   98.39294              25.27879              33.98469
   AR                   69.69062              54.80626              35.48472
   AR                  100.31132              45.64592              45.15989
   AR                    3.80663              20.09253              23.57647
   AR                   56.14786              38.79620              53.14782
   AR                   65.46158              51.90169              10.00246
   AR                   77.28889              30.40690              22.54080
   AR                  105.33882              34.93413              13.77524
   AR                   77.92414              29.43119              52.35782
   AR                   64.57420              15.94310               7.96007
   AR                   94.46373              44.74706              49.18395
   AR                   67.02235              18.61063              22.75497
   AR                    6.47086              15.94608               9.54368
   AR                   91.75526              23.01636              15.93478
   AR                   62.36425              10.56250              16.65308
   AR                   81.19906              14.12028              52.80948
   AR                   98.33347              44.73750              33.92323
   AR                  105.87934               8.38540              43.87950
   AR                   25.68693              18.46825               6.90416
   AR                   84.92384              31.35667              33.80633
   AR                   88.35264              30.57155              49.85539
   AR                   79.42007              33.73284              18.75479
   AR                   14.03690               1.80553               0.11326
   AR                   87.97535               0.60392              47.56524
   AR                   87.77280              11.59033              34.61540
   AR                   56.72776              21.83815               6.61668
   AR                   94.82449              36.31528              45.56229
   AR                   79.36398               6.28616              49.86418
   AR                  105.38654              26.41213              44.19411
   AR                   75.51947              42.69387              32.64953
   AR                    0.00108              32.86992              32.46204
   AR                   52.29676               2.17336              50.28146
   AR                  101.43008              52.93809               0.99688
   AR                   64.37231              44.04559               9.99960
   AR                   65.33622               6.99477              47.73194
   AR                   91.76662               6.84697              53.35600
   AR                   87.65008              30.14415              32.02045
   AR                   13.84950              32.14207              26.42018
   AR                  102.12166              54.11304              51.93581
   AR                   23.52827              31.55930              31.37106
   AR                   89.64548              30.60374              13.81755
   AR                   84.52943              37.62591              31.15639
   AR                   70.85956              45.61046               8.53801
   AR                   97.06221              55.46345               4.71571
   AR                   54.59604              36.06091              44.76970
   AR                   60.40444              16.79069              47.40364
   AR                   96.41262              34.02188              18.81025
   AR                   96.84667              47.36693              30.29835
   AR                  106.06621              37.29988              38.93004
   AR                   97.36270              31.90946              44.83481
   AR                   58.14507              41.95748              35.30804
   AR                    5.59933              26.19139              30.86781
   AR                   91.91640               9.75521               7.17212
   AR                   95.27651              10.81641              33.01989
   AR                  102.56063              14.84450              23.64430
   AR                   71.27660              40.19595              50.78667
   AR                   67.02377              43.13258               6.74211
   AR                   61.17665              37.48869              23.78627
   AR                  107.18166               8.72701              39.80887
   AR                   90.77318              17.48703              50.83511
   AR                   60.74287              22.85221              30.15794
   AR                   55.15230              15.42313              46.04612
   AR                   65.80855              53.57622              22.66168
   AR                  100.55090              37.45291              25.81084
   AR                   57.48583              45.19499              45.53916
   AR                   55.28900              43.81821               8.52226
   AR                   72.36962               2.58595              16.68193
   AR                   75.10236              30.78828              50.62392
   AR                   66.10834              36.72662               4.64386
   AR                  105.58589              37.13482              32.60387
   AR                   75.75122              23.10003              39.77941
   AR                   80.63753              35.32082              44.86129
   AR                   66.45890              10.67603              11.86955
   AR                   88.76438              12.28383               4.87426
   AR                   99.90919              46.68711               5.37392
   AR                   20.57123              18.45631              11.25798 FRACTIONAL
   AR                   52.46820              32.12510              40.55561
   AR                   59.59970              19.37848              36.97916
   AR                   84.25208              55.63608              11.65332
   AR                   67.91207              39.82530              25.94835
   AR                   21.23981              28.70695              13.35384
   AR                   53.96096              37.08503              34.79301
   AR                   91.72845               6.76505              30.36888
   AR                    9.59902              11.55808              19.14573
   AR                   15.23476               8.89002              15.12733
   AR                   21.38235              31.57125               9.57063
   AR                   92.14479              15.47486               7.25190
   AR                  103.73647               8.18882              32.35724
   AR                  106.49599               6.62784              52.33795
   AR                   73.88781               0.10021              20.64701
   AR                   77.86890              16.17094              36.13180
   AR                   58.71497              18.55874              50.38500
   AR                   87.71575              10.08398              16.97282
   AR                   63.28888              20.10179               4.90141
   AR                   79.17280              11.99324              22.93865
   AR                   56.07247               0.11952              36.90596
   AR                   94.80218              16.10501              17.72083
