       421
            33.55948            51.77390
   AR                   65.35412              21.87212              36.30960
   AR                   63.75782              25.21927              11.78004
   AR                   18.31333              15.35452               0.56057
   AR                   27.86562               8.10376               8.88982
   AR                   29.25631              14.64628               9.23362
   AR                   10.71397              16.97817               9.07294
   AR                   92.99519               7.30911               0.03161
   AR                   31.87279              26.95857               1.44219
   AR                   67.27111               5.54445              38.53666
   AR                   90.45220              43.83909               1.57295
   AR                   67.04686               9.86979              38.19795
   AR                   70.69452              11.25259               0.43607
   AR                    3.80400               6.33439              12.53503
   AR                   97.76148              44.62847              17.82008
   AR                   58.02455               0.52338              33.10747
   AR                   22.14839              15.33870              11.28965
   AR                    4.36168              10.15128               5.77723
   AR                   95.29955               6.17727              26.42525
   AR                   68.54523              27.28713              26.92871
   AR                   60.35505              25.52836               7.66216
   AR                  100.01916               3.84093              32.29459
   AR                   91.69705              43.12301              25.25968
   AR                   97.08623              38.30597              10.37966
   AR                   67.10644              49.40467              29.72164
   AR                   67.04292              47.88501              44.13659
   AR                   94.20992              47.74363              12.99189
   AR                   95.91542              18.35805              22.66486
   AR                   19.72197              15.12751              27.06545
   AR                   92.18810              39.54961              47.10697
   AR                   71.09567              38.98537              21.20686
   AR                   94.18514              41.10717              42.56977
   AR                   97.92288              16.06650               1.76015
   AR                   83.08229              12.26432              13.96154
   AR                    8.06025              12.84340               3.72827
   AR                   29.47105               8.34199              12.63881
   AR                   59.62321              28.94864              45.25005
   AR                   81.91955              36.40453              13.66241
   AR                   96.11494              34.62486              41.91144
   AR                   79.81043              48.74732              37.70240
   AR                   96.75005               2.14900              48.79458
   AR                   14.94036              11.45267              18.50361
   AR                   70.40420               7.41076              16.65021
   AR                   19.98406              18.38961              15.09389
   AR                   74.74977              39.47118               7.76670
   AR                   97.64336              14.12521              21.39776
   AR                   89.76136              29.20884              43.04290
   AR                   82.05235              50.96518              23.97153
   AR                   85.32055              17.24101              28.04330
   AR                   86.62426               5.00714              22.69466
   AR                   32.58627              26.37654              23.15165
   AR                   53.06365              32.20858               3.28070
   AR                   17.90245              18.98951              21.73945
   AR                   53.22486              40.92858              38.47665
   AR                   31.13816               9.27707               9.59474
   AR                   73.36777              20.37649               5.17442
   AR                   21.73708              24.44685              16.17183
   AR                   63.98159               7.43811              40.57676
   AR                    4.73918               1.37012               8.72287
   AR                   15.97080              22.12366              24.23660
   AR                   75.75529               4.56015               6.94715
   AR                   64.44489              28.24562              14.29843
   AR                   56.37988              10.31095              13.95393
   AR                   69.04885              40.88435              33.01089
   AR                   99.63512              13.78441              49.60464
   AR                  100.39272               1.18362              44.40917
   AR                   88.71625               9.41222              30.22645
   AR                   52.99882              13.95305               1.42625
   AR                   92.04322              45.58232              19.49525
   AR                   69.94281              11.46515              38.77588
   AR                   81.55058              26.23639              22.56251
   AR                   73.19743              31.18036               8.72477
   AR                   55.73865              44.71938              16.42090
   AR                   29.82451              30.86140               8.47947
   AR                   96.15469               9.17574              34.86248
   AR                   91.81725              22.62741              49.28223
   AR                    5.21066              13.57655              25.04094
   AR                  100.62471               8.20857              11.66628
   AR                   19.21439              32.13928              10.87301
   AR                    0.05010              15.49126               0.06915
   AR                   22.07343              18.82732               5.34264
   AR                   85.01505               9.52746              33.98000
   AR                    8.70887               1.80149              13.24058
   AR                   90.60096              23.08426              19.46559
   AR                   85.29723              44.71242               6.07667
   AR                   96.31323              20.77232              18.27343
   AR                   27.52707              27.38850              29.89387
   AR                   64.80508              33.50580              10.99042
   AR                   83.55856               2.80563              20.54240
   AR                    5.13714              21.34866              32.32095
   AR                   94.91805              28.63592              24.76012
   AR                   80.22211              34.38152              19.37897
   AR                   56.49839              36.44655              43.12045
   AR                   53.14860              38.54044              19.73112
   AR                   32.80647               4.54281              28.28844
   AR                   83.56907              21.07004              11.99965
   AR                   81.58275              12.42364              17.52931
   AR                   78.26385              49.55491              24.89658
   AR                   81.47646              21.62911               3.85713
   AR                  100.48101              49.92588              42.87175
   AR                    0.13568              22.94864              30.03759
   AR                   89.10532              36.76962              40.10794
   AR                   55.45513              34.27061               7.01002
   AR                   73.10777               2.20275              23.53953
   AR                   53.57823              33.13968              19.60225
   AR                   99.54429              49.75718              10.60021
   AR                   14.31721               8.33226              26.07271
   AR                    6.78033              20.36639               4.65273
   AR                   61.51774               1.67574              12.29003
   AR                   56.44684              32.88127               3.13811
   AR                   53.58633              30.04472              48.23860
   AR                   58.42688              11.59762              17.50274
   AR                   56.37246              43.80686              22.24714
   AR                   14.26349              15.42270               8.24884
   AR                   57.54886              42.18251              35.61342
   AR                    9.34185              29.17579              29.77613
   AR                   59.44586              13.21228               4.29736
   AR                   92.45127              15.82551              31.33833
   AR                   72.64045              18.44074              39.68462
   AR                   74.48336              28.02615              11.10335
   AR                   79.74264              38.66351               7.66001
   AR                   93.15773              29.02884              28.47363
   AR                   67.01178               5.63828               0.79653
   AR                   97.16970              23.22024              31.68340
   AR                   68.75837              22.13283              26.79812
   AR                   54.16038               6.67107              24.58922
   AR                   55.92816               3.28422              14.22861
   AR                   92.65990              33.07876              20.51127
   AR                   10.53740              10.39625              30.54790
   AR                   58.02208              40.12894               9.80860
   AR                   85.48179              43.01276              32.97978
   AR                   71.35072              22.47384              37.10210
   AR                   68.60051              31.81799              51.14300
   AR                   67.19665              41.32385              29.67086
   AR                   78.15386              35.95141               2.19044
   AR                   98.74719               8.61406              31.03428
   AR                   30.72175              12.10346              26.48781
   AR                   97.80477              41.57426              36.21422
   AR                   51.67351              45.31973              42.87619
   AR                   51.12970              13.20900              32.08360
   AR                   55.43313              29.33702              35.67189
   AR                   95.55802              51.65386              22.51881
   AR                   97.68953              46.23249              13.76047
   AR                   89.66090               7.42539               4.98143
   AR                   55.19661              50.32366              32.05500
   AR                   96.12173               4.16842              29.48360
   AR                   77.12484              27.52359               5.25369
   AR                   25.72217              29.16595              26.58975
   AR                   76.93093              31.66670               8.36233
   AR                   73.05881              25.04297               6.87569
   AR                   56.28313              24.33424              13.51387
   AR                   99.81074              48.35101              22.82735
   AR                   66.62953              49.42035               5.56530
   AR                   68.81401              26.58911              31.93383
   AR                   71.00725              18.87089              50.86775
   AR                   81.20990              38.54889              48.84134
   AR                  100.64782              46.06740               6.68139
   AR                   79.20758              37.87590              29.27852
   AR                   83.63886              21.25916              48.66026
   AR                   86.56311              15.57354              39.88505
   AR                   73.59665              12.49667              34.72287
   AR                   55.75437              10.04922               8.85912
   AR                   66.24238              28.58793              28.67287
   AR                   12.22762               0.99438              20.11033
   AR                   86.25906               6.00657               8.92226
   AR                   76.02605               8.89261              47.04925
   AR                   98.20964               0.50727              29.12186
   AR                   79.61150              11.33033               5.43317
   AR                   54.66008              12.36730              26.04842
   AR                   69.80869              37.70964              51.69304
   AR                   79.48605               7.46011              50.44037
   AR                   65.34014               8.79715              14.74737
   AR                   85.62303               1.00756              25.38187
   AR                   69.03690              43.36508              26.11407
   AR                   56.08291              16.16040              34.98127
   AR                   68.15514              27.10941              22.52272
   AR                   50.69801              14.49220              23.52113
   AR                   66.29793              18.04345              11.35801
   AR                    6.44547              24.19996              23.30136
   AR                   82.92979              28.38417              42.01463
   AR                   90.53503               2.95939              48.19625
   AR                   82.19471               9.39750              27.22472
   AR                   12.76154              26.44075              19.60166
   AR                   94.38673              42.24170              19.70915
   AR                   85.16886              26.68646              39.60479
   AR                   89.32126              36.31538              18.19600
   AR                    1.95679              11.10317              24.42935
   AR                   13.54489              21.71719              18.41940
   AR                   69.63602              26.94664              48.17221
   AR                   53.99387              23.58118              21.49438
   AR                   32.95870              16.28315              19.91376
   AR                   86.85881              40.04193              39.84542
   AR                   20.76589               5.89914              25.19634
   AR                   80.62686              49.64432              27.77446
   AR                   58.13385              18.49434               7.33163
   AR                   93.72612              39.14445              23.69182
   AR                   84.56921              41.23666              36.00688
   AR                   31.49718              22.32739               1.54961
   AR                   74.74253              31.45938               1.94462
   AR                    2.81024              23.61074               5.93370
   AR                   61.80928              42.54976              29.80930
   AR                   82.73374              48.47724              31.65819
   AR                   61.68914              16.91546              27.10353
   AR                   83.63150              13.69791               6.84468
   AR                   74.18432              23.95772              15.56273
   AR                   87.92064              49.44515              17.36207
   AR                   98.07962              44.09306              49.58331
   AR                   15.64325              33.24480              21.60248
   AR                   56.66814               1.64110              43.45961
   AR                   67.84745               0.56653              21.75881
   AR                   87.32250              19.59819              25.31629
   AR                   78.20534              44.88938               7.93054
   AR                   93.42099              14.16899               4.39819
   AR                   26.17537              10.75241              16.32355
   AR                   90.61422              50.32877              21.59216
   AR                   54.84827              16.82486              14.11426
   AR                   54.29870              11.55643              45.79581
   AR                   87.20329              27.06182              34.51193
   AR                   11.28771              19.50662               3.43082
   AR                   58.98212               2.24469               1.94027
   AR                   21.69629              29.00626              13.56689
   AR                   84.93689               5.91357              28.56852
   AR                   22.20710              10.22433              21.44096
   AR                   64.46673              20.35894              19.66192
   AR                    7.60926              21.43807              19.99066
   AR                   74.39375              26.50852              33.98216
   AR                   20.01744              21.86218              18.00472
   AR                   23.44144              12.91501              25.23365 FRACTIONAL
   AR                   82.98179              18.48009               5.75555
   AR                   89.66133              24.30084              26.90231
   AR                   78.68693              12.81551              28.46164
   AR                   12.20116               5.10042              10.13991
   AR                    7.96795              31.19884               6.85504
   AR                   62.80589              24.39326              46.22475
   AR                   92.78208              11.78561              30.07265
   AR                   78.45275              19.70873              27.35620
   AR                    2.60675              26.11645              24.70922
   AR                   76.00491               0.44930              26.92466
   AR                  100.83189              26.11218              49.55686
   AR                   16.22547              22.38782               0.01225
   AR                   32.02192              23.44372              12.69836
   AR                   92.24397              43.70206               5.46595
   AR                   62.69534              41.58284              15.21475
   AR                   81.59660              39.30030               0.71151
   AR                   75.14292               0.05884               8.95017
   AR                   30.59516              25.34126              16.43318
   AR                   19.75040               9.72867              11.61534
   AR                   57.08349              17.60097              18.89071
   AR                   63.27305              15.91471              34.41805
   AR                   12.20477               4.27325              29.23591
   AR                   74.75537              42.70645              13.66539
   AR                   98.07338              43.74249               5.30521
   AR                   98.85217              19.01860              33.02322
   AR                   84.23241              14.16922              47.19197
   AR                   89.46408              12.67654               9.72716
   AR                   67.07331              29.59517               1.43313
   AR                   79.02848              49.06917              17.69740
   AR                   32.38883               0.81282              20.65357
   AR                   17.14296               6.64305              24.77317
   AR                   10.39893              13.31782               9.69042
   AR                   65.40891               7.74474              35.85669
   AR                   30.59035               6.24417              19.18075
   AR                   82.92564              44.81244              30.71755
   AR                   21.12979              32.58766               3.05891
   AR                   29.94275               0.16413               5.93285
   AR                   88.60466              44.55545               4.83987
   AR                   82.41553              15.90645              16.12312
   AR                  101.89654              37.12337              31.65785
   AR                   89.75170              10.03327               7.43792
   AR                   51.87675              20.81857              10.53586
   AR                   82.05911              32.63284              36.86854
   AR                   74.46599              37.99291              48.25822
   AR                   77.59600               7.05628              44.26489
   AR                    8.98210               5.39125              33.16898
   AR                   65.52839              48.55927              39.05173
   AR                   17.35258              21.84443              19.85386
   AR                    6.45420              22.24360              14.28684
   AR                   91.84065              16.88018              19.74975
   AR                   64.43239              34.11799               0.06798
   AR                   74.65546              44.82553               7.00822
   AR                    7.36159              26.54786              29.42735
   AR                    1.14701              18.76548              10.02111
   AR                   81.06993              21.02838               9.30152
   AR                   88.32291              48.91605               0.55861
   AR                   90.56245              19.97684              51.26610
   AR                   54.87375              49.87399              40.31474
   AR                   68.03296              35.71333              10.50169
   AR                   21.75638               7.21763              28.33186
   AR                  100.62584              13.00732              44.80572
   AR                   71.37155              18.07860              45.46058
   AR                   59.03426              47.90204              50.14025
   AR                   55.60060              33.29632              49.81228
   AR                   71.19783              43.53240              42.27967
   AR                   67.52317              43.90774              34.88744
   AR                   94.99950              11.32624              20.28489
   AR                   74.06543              14.18079              31.60633
   AR                   93.72995              39.08203              15.75562
   AR                   69.19686               7.93899              22.70330
   AR                    5.92493               5.50900              31.10275
   AR                   71.18066              34.41190              49.96619
   AR                   70.48672              44.33500              48.47570
   AR                   51.52278               3.53477              30.93765
   AR                   98.33984              33.73156              34.76842
   AR                    6.38755              18.36776              10.72160
   AR                   59.17157               4.81589              31.01740
   AR                   82.00340              33.14845              41.72837
   AR                   51.94040              17.27463              29.51655
   AR                   95.91103              13.96527              49.15154
   AR                   64.79912              18.87363              16.11538
   AR                    0.43536              17.72123               3.34103
   AR                   88.66658              20.70807               7.04700
   AR                   93.49920              23.61608              25.23707
   AR                   64.94654              26.20138              17.84823
   AR                   70.61211              30.63029              16.36152
   AR                   59.34352              48.06592              21.39201
   AR                   60.98493               9.62599               5.39750
   AR                   66.10950              27.65916              50.18609
   AR                   98.33463              24.17383               9.23688
   AR                   21.08293              10.44350              27.90712
   AR                    1.46873              20.50973               1.02225
   AR                   85.44450              49.72234              13.14830
   AR                   88.11702               9.07764              20.04560
   AR                   10.56796              17.01465              24.58004
   AR                    1.72857               6.49654              26.73907
   AR                   53.26240              20.42522              19.57272
   AR                   90.48369              12.07236              25.07525
   AR                   67.50216              31.27413              14.26681
   AR                   60.85708               2.94058              34.92784
   AR                   25.38682               6.67048              21.73072
   AR                   94.22922               9.15438              22.81028
   AR                   50.42202              51.02301              23.87462
   AR                   84.72956              30.31275               7.46164
   AR                   80.69741               6.40486              31.83577
   AR                   64.27730              13.70881              47.80980
   AR                   80.64167               3.16903              41.01632
   AR                   99.94778               7.22942               4.56307
   AR                   89.05947              16.40887              31.20820
   AR                    6.27585              27.87278               7.89025
   AR                   16.98111              18.76456               8.07933
   AR                   10.08586              19.69386               6.83114
   AR                   86.41333              18.39396              15.70911
   AR                   76.63799              49.47590               5.28913
   AR                   33.39430              12.29365               1.93798
   AR                   10.97790              11.07654               3.58200
   AR                   21.51545              25.76763              12.58957
   AR                   59.23388              22.44459               8.31095
   AR                   97.97993              11.07001              19.12950
   AR                   63.25591              30.62109              31.28604
   AR                   86.94914              16.71431              23.07297
   AR                   61.02100              47.92613               5.27406
   AR                    6.83669              16.15615              13.32913
   AR                   70.72268              51.10110              13.08769
   AR                   71.81954              17.00743              11.46253
   AR                   28.29538               0.18623              23.51469
   AR                   27.13869              24.34267              12.55564
   AR                   93.28270              43.22873              12.25215
   AR                   57.97480              50.29471               4.33102
   AR                   61.23810              13.54250              28.62026
   AR                   72.45208               1.20655              29.56288
   AR                   60.02391              16.59070               1.87519
   AR                  100.38716              35.20361              27.81578
   AR                   63.42968              28.54329               7.34707
   AR                   55.70301               8.04057              35.98853
   AR                    9.23124              12.27836              22.24651
   AR                   10.31837              26.31934              26.17594
   AR                   17.36140              15.25815              24.53406
   AR                   18.68160              23.53013              25.82350
   AR                   88.34941              17.85713               2.03058
   AR                   96.64730              10.67573              14.39787
   AR                   28.98477              10.10959              18.94835
   AR                   61.15637              19.71048              22.57963
   AR                   60.74707              40.43405              37.17629
   AR                   82.35004               9.04294              42.56514
   AR                   56.74434              20.60645              50.92662
   AR                   65.85351              18.76201              39.21440
   AR                   54.51344               7.76559              32.63647
   AR                   12.21560              30.14109               4.12202
   AR                    2.85684              23.63920              15.71466
   AR                   91.38589              39.06030               4.87842
   AR                   77.05477              33.82893              51.10330
   AR                   10.63568               7.63243              25.38933
   AR                   14.07050              13.78282              16.07120
   AR                   81.94818              33.03405               7.64689
   AR                  100.58005              13.08904               2.74651
   AR                   80.36335              35.15850              39.10875
   AR                   77.40537              27.80286              22.07209
   AR                    5.60404              29.23731              17.89619
   AR                   71.70808              13.84883              29.01514
   AR                   60.65620              44.10905              38.36308
   AR                   94.23637              24.40161              45.66271
   AR                   69.06850               3.49404              10.70747
   AR                   14.59763              10.91684              28.59511
   AR                   11.64083              11.71109              19.81832
   AR                   51.04561              37.86653              47.65830
   AR                   53.10179               2.91209              18.50917
   AR                   19.47640               3.54316              28.78858
   AR                   60.98435              10.58734              23.73137
   AR                   97.25966              23.55918              13.12826
   AR                   51.61301              50.19379              36.64357
   AR                   50.92202              49.07011              30.01862
   AR                   78.83636              10.99158              41.80543
   AR                   16.79658              12.11349               9.77586
   AR                   84.15883              43.77702              46.15561
   AR                   67.34445              36.50527              13.53493
   AR                   51.27861              41.00683              32.17978
   AR                   53.21370              26.16415              24.96111
   AR                   26.07406              26.65883              10.45801
   AR                   97.12156              44.63436              10.97656
   AR                   11.75160              17.07799              18.82113
   AR                   79.55710               3.95882              37.21820
   AR                   13.89732              11.15832              24.19944
   AR                   89.89326              38.98674              13.90476
   AR                   70.81036              50.46824              43.68771
   AR                   59.69551              50.75061              23.99078
   AR                    9.39719              13.60827              16.82574
   AR                   95.87527               4.49362               8.92659
   AR                   66.40306              23.13041              15.22898
   AR                   70.46659              22.66561               0.23048
   AR                   62.08831              51.12046              49.96238
   AR                  101.71635              32.72036               4.67598
   AR                   88.05467              31.80266              22.09870
   AR                   66.17926              22.10098              44.89706
