       356
            34.83309            54.32146
   AR                   29.96410              13.18375              25.78893
   AR                   73.88913              54.11408              43.99505
   AR                  102.22392              44.67108               0.98843
   AR                   61.59139               4.95908              36.47641
   AR                   54.82868              46.95269              43.60811
   AR                    3.15146              23.72463              27.45497
   AR                   96.84556              48.79376              26.22204
   AR                   95.76081              25.52761               0.32087
   AR                   85.65033              23.27730              40.29843
   AR                    5.44787              33.24890              34.79816
   AR                   74.77408              16.98891              37.49992
   AR                   83.29099              38.99254              21.34827
   AR                   57.18473              24.84932              51.07690
   AR                   61.50747              43.97060              45.41526
   AR                    3.28995               4.63566              26.51575
   AR                   16.66808               4.21111              33.21993
   AR                   67.67144              32.64916               7.08531
   AR                   87.15975               9.94884               4.26252
   AR                   89.70769              38.55623              36.48504
   AR                   10.99411              21.91650               6.69996
   AR                   71.37164              27.98386              42.36157
   AR                   69.59542              53.93997              25.53296
   AR                   21.79424              27.92574              13.24060
   AR                   60.22525              36.21433              25.77138
   AR                   80.77485               3.28362              17.25384
   AR                   78.54504               3.52288              36.85490
   AR                   59.70377              49.07231              47.03512
   AR                   67.30056              35.49101              41.92864
   AR                   80.85960              44.83455               3.19653
   AR                   93.21170               3.49319              47.22352
   AR                   54.34496              37.91351              10.24499
   AR                   72.35887              45.91796              25.31081
   AR                    1.58035               7.59838              18.83305
   AR                   85.90823               7.01656              28.02096
   AR                   62.02933              24.38723              38.74912
   AR                  104.69842               2.42591               9.89073
   AR                   54.31585              13.52913              19.57314
   AR                   56.05313              10.87565              50.25670
   AR                    9.43085              24.39081              13.94561
   AR                   89.63546               7.04313              38.36026
   AR                   87.68036              14.89476              27.98623
   AR                   97.75444              46.41533              15.05131
   AR                    2.61903              15.82849               4.11964
   AR                   20.35754               1.81815               0.25493
   AR                   85.60850               6.81980               4.78929
   AR                   55.54689              10.80939               6.82733
   AR                   88.59259              34.64468               6.15363
   AR                   80.30979              52.03878              11.54976
   AR                   63.93656              36.12792              17.97593
   AR                  101.36022               3.74449              31.76466
   AR                   58.49808              26.53558              42.06452
   AR                  100.39074              41.34032              30.53033
   AR                   16.88845               3.13221               9.80692
   AR                   80.32530              21.69063               1.28772
   AR                  103.15815              11.12510              54.12374
   AR                   15.24774              10.42509              19.00309
   AR                   67.64646               9.01757               2.26185
   AR                   75.06864              39.75786               4.90300
   AR                   62.85340              20.93358              34.60529
   AR                   97.16731              29.45857               8.44875
   AR                  103.97451               2.98474              14.59975
   AR                   94.75075              20.52580              15.90265
   AR                   94.10254              33.28435              35.62831
   AR                   71.96948               7.02892              45.74233
   AR                   56.58201               7.62316              34.56886
   AR                   76.33994              48.12088              29.23098
   AR                   84.92029              36.64600               2.54703
   AR                   62.57138               1.18902              15.01776
   AR                   61.37718              26.42333               8.93586
   AR                   13.66553              13.19209              22.81723
   AR                  101.79614              44.54368              26.30844
   AR                   65.15304              40.70754              42.40536
   AR                   27.00760               8.90959               7.65117
   AR                  105.24589              10.94164              31.60288
   AR                   67.06391               4.78714              12.34474
   AR                   59.03614              14.30564              45.53514
   AR                  100.07691              25.79378              38.60803
   AR                   74.79773               9.72072              20.09970
   AR                    3.80648               4.66379              10.95175
   AR                   19.16467              11.83126              16.77284
   AR                  100.05985              44.39349              52.22075
   AR                   78.28586              34.04775               5.78056
   AR                   23.53536               8.87696               7.59066
   AR                   52.95023              30.28389               1.08177
   AR                   71.10315              11.00731              13.57495
   AR                   56.28617              43.80442              44.47292
   AR                   94.16636              15.24147              52.53052
   AR                    3.86157              11.30140              12.50198
   AR                   89.11337              46.10752              34.49107
   AR                   87.69395               8.20979              35.37911
   AR                   83.59710               8.45855              10.63719
   AR                   53.65369              15.59643              39.31901
   AR                   72.41219              53.54762              19.98265
   AR                  100.14068               9.88803              19.30460
   AR                    4.02671               0.89400              16.68409
   AR                   60.21985              20.95567              16.70594
   AR                   58.23751              35.42468              46.09240
   AR                   55.51507              30.23922              41.92586
   AR                   81.24680              50.62207               1.90588
   AR                   96.52378              22.57503              32.48864
   AR                   96.38952              44.29075              51.90135
   AR                   59.10299              43.89319              16.08760
   AR                    6.76435               1.97398               6.86742
   AR                   54.11830               8.08669              30.58911
   AR                  100.70972              43.89603              38.70034
   AR                   69.30315              40.61239              31.39833
   AR                   20.22823              13.92725               3.97176
   AR                   55.10301              14.89375               6.44841
   AR                   52.85150              45.68306              16.51965
   AR                   58.86221              39.73979              33.46714
   AR                   85.15784              43.11938               5.26751
   AR                   15.87021              13.76896              16.92297
   AR                   53.56962              31.40283              51.46989
   AR                   97.38573              13.13337              45.83592
   AR                   16.61112              31.48681              29.71052
   AR                   95.43418              50.11476              29.67452
   AR                   99.14087               4.98938              12.76572
   AR                   82.72573              43.61148              20.30853
   AR                   58.86931              53.20930              16.68679
   AR                   87.78835              40.75927               8.45068 FRACTIONAL
   AR                   31.98508               6.57697               3.96429
   AR                   79.23141               9.00098              46.52988
   AR                   69.50631              11.68717               4.28605
   AR                   98.98237              51.47042              50.02773
   AR                   11.95469               8.45670              13.03456
   AR                   23.45430              23.88823              15.03043
   AR                   60.69351               6.93033              53.69981
   AR                   53.30175               1.27088              40.11778
   AR                    8.89574              20.99819              13.28184
   AR                   53.26750              30.82609              13.81303
   AR                   28.88534              17.60922              10.73232
   AR                   77.55987              23.46734               0.88293
   AR                   19.73538               8.12618              33.40872
   AR                    5.43919              17.09297              21.90792
   AR                   63.95178              10.12114              40.23436
   AR                   53.39650              19.78254               5.35698
   AR                   83.43010              36.60143              30.87724
   AR                    0.94569              31.91710              23.65041
   AR                   60.44448              37.66542              48.13104
   AR                   76.69206              39.31033               1.70067
   AR                  105.01054              31.19032              37.91435
   AR                  106.36220               9.28771               7.82547
   AR                   68.80276              25.21201              45.34721
   AR                   75.40788               3.10062              43.00318
   AR                    1.34061               8.64827              10.97564
   AR                   26.03054              32.94245              29.09730
   AR                   98.08035              32.92204              48.44840
   AR                   70.20637              40.40979              44.85508
   AR                   83.64572              53.95600              46.82873
   AR                  101.89657              31.80518              28.39387
   AR                   88.65481              10.80320              40.10551
   AR                   55.26269              17.13843              49.06949
   AR                   70.91366              51.41221               4.24316
   AR                   59.64487              47.15592               2.68729
   AR                   94.85197              45.09012              36.97263
   AR                   54.06381              13.44247               1.99728
   AR                   73.72883              10.13325              40.92163
   AR                    5.43796               9.04722               5.37241
   AR                    4.29678              27.97695              28.08857
   AR                   77.77162              54.27602              41.22342
   AR                   70.76964              20.69781               4.24178
   AR                   66.37641              15.94148              20.28988
   AR                   64.81784              13.06226              17.71872
   AR                    0.44951               8.75519              15.04090
   AR                   58.59849              30.10545              44.05937
   AR                   80.95242               7.77054              21.31086
   AR                   64.58313              34.68897              48.59180
   AR                   74.42544              48.97499              17.72343
   AR                   62.72135              43.20647              20.61916
   AR                   57.28989              51.11408              35.81931
   AR                   95.74376               2.95143              21.02596
   AR                   85.13684              35.44886              23.21873
   AR                  103.62592              51.77926              15.01842
   AR                   65.63173              25.93201              11.49451
   AR                   64.51512              41.48622              53.72911
   AR                   79.22460              19.33796              33.83258
   AR                   88.52011              22.47692              47.00259
   AR                   57.33752              27.98209              52.78238
   AR                   85.53850              23.11560              49.29512
   AR                    8.47613               9.39796              12.13344
   AR                   55.72897               9.21871              21.89630
   AR                   55.49622              18.62487               9.25957
   AR                   65.28058              13.12866              46.30423
   AR                   94.67133              10.26360              14.99489
   AR                   76.47556              29.16854              29.42827
   AR                   83.02115              43.74787              49.99829
   AR                   62.76834               3.01682              50.11690
   AR                   89.12068              18.82087              28.94709
   AR                   72.96097              34.38244               5.25756
   AR                   86.20479              15.57432              17.16355
   AR                   94.00446              41.03586              51.65999
   AR                   55.99789              24.79267               5.25334
   AR                   70.34007              22.16871              31.26168
   AR                   26.27054              30.27853              10.87165
   AR                   71.80231              19.70270              47.54789
   AR                   98.56392              36.95173              39.74627
   AR                  103.28214               6.82298               8.30573
   AR                   85.50922              40.36580              37.50295
   AR                   29.68675               5.03008               9.64856
   AR                  100.31397              29.46303              30.71686
   AR                   67.24090              18.42592               9.86193
   AR                   94.42833              16.51772              31.40999
   AR                   63.10530              19.96910              11.79110
   AR                   20.13331              29.77317              26.60649
   AR                   72.63230               6.25452               0.05729
   AR                   91.23751              32.27862              48.28561
   AR                  100.66553              26.67023              41.85407
   AR                   69.50444              21.03554              41.50598
   AR                   96.26908              52.83866              37.15564
   AR                   27.96964              24.94047              21.48943
   AR                   69.92900              45.73460              37.07156
   AR                    3.75915              33.44948              19.32413
   AR                   69.74801              48.16729               9.19156
   AR                  104.73922              11.59143              17.53868
   AR                   78.94127              32.86452              45.30356
   AR                   96.42367              30.64359              19.00606
   AR                   58.14000              33.88318              22.95668
   AR                   13.09984               1.90891              27.74234
   AR                  100.50373              29.50236              44.79988
   AR                  106.33609              12.68020              36.45266
   AR                   95.94707               9.31499              50.09951
   AR                   81.15733              42.67301              52.94940
   AR                   63.19170               0.78376              20.55593
   AR                   60.20650               3.54494              18.35552
   AR                   76.03148              52.23380              30.17079
   AR                   25.53099              17.70440              17.57510
   AR                   70.68785               0.09127              52.24877
   AR                   84.18846               4.91598               9.71273
   AR                   77.88907              30.11118              39.82594
   AR                   19.29537              14.92856              18.49311
   AR                   91.00492              46.36210              25.15723
   AR                   68.45549               8.63406              51.08972
   AR                   77.95837              16.73524              41.69558
   AR                   84.49309              48.53474              18.59011
   AR                   56.84648              51.92999              54.26865
   AR                   87.05748              54.01718              33.37263
   AR                   82.23832              37.66327              43.94128
   AR                   61.73997              17.23610              52.35290
   AR                    8.97328               7.86853               4.54839
   AR                   29.52358              21.61711              16.46621
   AR                   68.41305               7.59303               7.71317
   AR                   11.83182              32.93643              13.34669
   AR                   53.77825               3.75314              52.69709
   AR                   96.09463              28.04468               5.13197
   AR                   62.95342              37.88462              22.96798
   AR                   21.15794              13.12395              29.04035
   AR                   57.26263              48.50591              17.01695
   AR                   81.81379               4.72149              47.49383
   AR                   98.11303              19.18250               5.74778
   AR                   89.56561               8.38926              53.97318
   AR                   79.71002              52.78523              43.82670
   AR                   65.99335               8.02702              32.78281
   AR                   86.86076              14.33445              32.78551
   AR                   72.35380              14.27711              38.29459
   AR                   86.35050              19.91587              43.74562
   AR                   71.06341              38.25416              28.57370
   AR                  100.87797               8.93901              33.28173
   AR                   83.11826              34.01590              46.21229
   AR                   83.55850               2.34166               0.64907
   AR                   78.60628              45.18190              21.96905
   AR                   68.53606              22.56411               6.49395
   AR                  101.57191              29.40713              14.63183
   AR                   84.61819              43.77410               9.30600
   AR                   53.01808              50.68661              12.69645
   AR                   55.27926              24.53210              41.13902
   AR                   97.01741              26.58696              46.09789
   AR                   74.33839              39.47249              45.75775
   AR                   29.37819               9.31113              20.77609
   AR                   71.83947               5.02365              48.84842
   AR                   74.61428              50.00646              53.39215
   AR                   90.54606               8.46274              12.90900
   AR                   84.58755               4.60826              41.43449
   AR                   80.85344              42.61897              16.43307
   AR                  104.55265               1.28355              36.23021
   AR                   94.89262               6.79417              48.15634
   AR                   59.35876              27.29002              50.10219
   AR                   88.48173              35.69437              41.51331
   AR                    6.04987              17.19125              32.13333
   AR                   14.87916               3.56223               5.77925
   AR                   68.04917               8.57184              38.87908
   AR                   83.20893              16.27206              42.79247
   AR                   83.61695              47.73544              31.42114
   AR                   34.59462               4.09908               9.52692
   AR                    8.84925              30.09461              11.09467
   AR                    8.04501              29.92959              24.67910
   AR                   64.85215              16.32140              26.48090
   AR                   89.26281              48.76497              11.91358
   AR                   79.54883              27.90522              10.31194
   AR                   54.83012               1.24149              34.15992
   AR                   24.43075              26.88194              20.26894
   AR                   83.02302              53.02140              13.36183
   AR                   67.73304              22.30688              36.59071
   AR                   10.66764              30.56133               4.01638
   AR                   59.90036              14.70160              40.46092
   AR                   25.18507               4.86295              29.07101
   AR                   82.63412              43.58595              43.08204
   AR                   24.41485              31.47716               4.80339
   AR                   28.26149              24.12623              14.64946
   AR                   90.61791              22.69937              35.94252
   AR                   95.05965              35.58439              41.13342
   AR                   82.10757              28.57665              14.64395
   AR                   58.94920              10.78282              35.97019
   AR                   78.83579              39.55757              22.21667
   AR                   85.19044              45.28263              27.93317
   AR                   72.36835              36.41045              40.75729
   AR                   73.69637               2.13947              36.63232
   AR                   72.53227              10.39389              16.77171
   AR                   98.06193              15.81444              16.10907
   AR                   71.93760              44.46651              49.42943
   AR                   92.57538              51.72364              47.86433
   AR                   76.79040              43.19913               3.22421
   AR                   89.11262              52.89710              45.37266
   AR                   62.05272              39.70613              34.50034
   AR                   15.86341               0.24992               4.27021
   AR                   91.48569              27.69032              37.08037
   AR                   74.48486              22.35647              54.31912
   AR                    6.51723              24.82539              29.10302
   AR                   64.68537              36.96390              41.81049
   AR                   14.54658              22.56672              13.39787
   AR                    9.91818              11.00043              14.57122
   AR                   65.11490              11.85239              20.83815
   AR                  102.85379              46.52518              31.31889
   AR                   21.54561              28.12414              32.09973
   AR                   93.64794              19.90625              50.86840
   AR                   70.04044              49.88996              53.68424
   AR                    0.87211              24.01074              24.29026
   AR                   89.93554               1.81406               8.04821
   AR                   93.39833              45.42237              54.22257
   AR                   31.32766              31.46329              14.79997
   AR                   80.71863               0.81171              50.60959
   AR                   90.31964               8.05676              44.51795
   AR                   63.39452              38.72019               5.50441
   AR                   93.15303              31.15333              38.95071
   AR                   99.25991              42.70036              15.66764
   AR                   59.25514              41.27969              40.88339
   AR                   97.50312              53.52992              53.65550
   AR                   95.51875              41.54625              47.24327
   AR                   94.97267              12.97780              49.91845
   AR                   95.98539              40.58953              27.14692
   AR                   91.98579              45.41208              19.12279
   AR                    7.59147              15.41628              29.09876
   AR                   62.62851              48.82334              10.64383
   AR                   82.06097              38.43031              16.59174
   AR                   89.91707              14.95501              16.16287
   AR                   88.70843              17.93558               6.18814
   AR                   61.15594              49.82719               6.88579
   AR                   94.51895              42.96340              22.24581
   AR                   77.93456              40.26946              18.21075
   AR                   77.54552              15.54958              35.19781
   AR                   87.25918              36.31617              48.77017
   AR                   84.12800              44.19190              13.37589
   AR                   74.88501              15.13016              22.03571
   AR                   76.12481              31.66572              36.47277
   AR                   69.54958              23.55525              53.64830
   AR                   65.98389              45.75002              19.05866
   AR                   58.30181               0.54731               3.44949
