       301
            34.13641            62.76757
   AR                    4.24774               7.39159              15.12625
   AR                   95.05683              25.01044               4.68047
   AR                  100.69721              11.35621              49.77426
   AR                   83.80325              34.91928              25.62247
   AR                   55.42812              54.12103              60.42631
   AR                    7.67391               9.61518              18.97703
   AR                   81.35224              16.85481              49.74008
   AR                   97.24186              51.24329              47.83885
   AR                   79.98012              17.83949              53.16992
   AR                   91.66468              41.38954              17.49451
   AR                   78.41987              38.50610              46.71752
   AR                   98.82568              39.06544              37.58151
   AR                   72.45489              16.20524              29.75762
   AR                   68.73578              46.00815              57.44607
   AR                  107.96763              60.30319              47.65840
   AR                   13.59007               2.74639              20.66018
   AR                  104.45537              55.69244              50.81540
   AR                   86.30831              36.27800               0.38236
   AR                    9.10133              22.12680              32.81434
   AR                  108.37808              42.22400              15.74355
   AR                   94.39395              54.85497              32.63667
   AR                   33.04563              15.84612               3.57617
   AR                  109.89029              50.37209              36.98680
   AR                   71.15308               4.56611              33.18103
   AR                   96.00802              56.86797              38.87055
   AR                  101.13717              12.14003              25.22458
   AR                  102.59682              56.72427               3.76935
   AR                   55.91055              60.24057              54.86663
   AR                   73.23063              42.12917              19.38271
   AR                    8.38727               5.13710              33.91932
   AR                   77.38812              29.62604              49.95620
   AR                   56.89798              37.57352              51.56394
   AR                   15.50136              26.49850              21.12129
   AR                   52.79062              21.97604              46.86679
   AR                   59.72400              21.79882              11.99411
   AR                   91.47891              14.07688               1.61529
   AR                  105.74901              15.87537              33.88280
   AR                  110.59270              51.69683              21.08602
   AR                   98.06556              57.11357              34.98410
   AR                   69.20981              11.66641               2.59333
   AR                   98.02268              28.50868              32.42238
   AR                  112.69102              35.59371              43.17117
   AR                   90.39266              45.45081              14.96720
   AR                    5.45365              15.90858              10.64245
   AR                   84.37589              11.64966              25.11445
   AR                   85.38511               3.47494              56.31196
   AR                   53.43052              36.48780              26.42075
   AR                  102.26224              29.64712              53.24256
   AR                   71.74865              11.23570              55.31660
   AR                  101.98910              18.69897              21.10835
   AR                   19.83847               0.53848              17.85716
   AR                   67.56800               9.34661              15.05708
   AR                  101.31893              42.95127              27.19050
   AR                   26.54939              20.58534              22.73090
   AR                   93.16296              28.04295              21.57975
   AR                   90.76697              19.17993              28.57584
   AR                   65.53794              32.21484              41.85079
   AR                  107.52304              27.73001              49.11042
   AR                   90.63776              51.47187              48.76966
   AR                   55.67242               0.94883              55.78392
   AR                   73.79813              56.09864              55.81483
   AR                   93.79122               5.16061              31.17097
   AR                   67.57599              36.44354              45.62263
   AR                   98.53413              56.61826              41.59030
   AR                   61.71538              33.32771              62.22376
   AR                   90.84830              37.56393              53.67075
   AR                   97.51666              46.02544               4.71992
   AR                   63.33704              28.42623              56.91179
   AR                   70.87378              46.29665              12.36132
   AR                   79.96984               9.15942              21.69051
   AR                   67.80459              23.83317              15.02462
   AR                   64.93294               5.92757              20.36914
   AR                  107.64052              28.38948              56.80378
   AR                   78.48617              10.28062              60.73615
   AR                   79.53969              25.05857              17.04823
   AR                   75.83177              32.85241              36.30388
   AR                   19.26877               4.84280              14.04063
   AR                   59.96867              24.66807              59.71283
   AR                   99.45816               7.89823               8.43340
   AR                   63.24697              28.73549              29.43385
   AR                  105.18910              22.05421              30.49285
   AR                   68.32590              14.67874              52.66015
   AR                   85.74175              32.53393               8.22367
   AR                   85.81543               4.90419              17.45362
   AR                   55.43982              24.30641               9.47777
   AR                   10.20041              22.82635               6.32728
   AR                   66.65468              41.01416              40.10077
   AR                   71.22797              19.59276              56.74023
   AR                   24.19843              25.92538              24.10761
   AR                    4.27235              28.24947              17.95195
   AR                   59.29757              21.40901              52.00290
   AR                  112.23886              33.06019              26.99682
   AR                   54.41557              22.13993              21.03154
   AR                   97.87399              49.03989              32.82488
   AR                   81.77860              17.27165              13.30085
   AR                   78.06464              21.02213              55.53391
   AR                  109.63913              11.32282              51.89996
   AR                   90.04316              18.41738              20.76601
   AR                   89.21835              50.09273              45.90786
   AR                   58.76923              14.50927               0.42219
   AR                   61.62398              40.98959              43.00707
   AR                   72.24199              14.30615               8.69335
   AR                  113.80657               4.42601              11.88615
   AR                    7.47718              27.95881               4.12573
   AR                   58.48832              41.64205              62.59444
   AR                   54.82639              58.96967               8.62127
   AR                   18.53845              10.73283              10.20942
   AR                   56.42741              22.56354              44.88208
   AR                  113.86228              14.45355              13.61667
   AR                   34.07072              21.15678              11.92409
   AR                   15.87130              23.33635              19.06371
   AR                   65.11173              27.82748              19.31625
   AR                   76.16261              17.36929              61.64614
   AR                   80.23364               2.98986              40.30173
   AR                   77.42424              46.06836              49.83041
   AR                  107.18164              24.39449              48.12742
   AR                   52.28552              44.05730              57.47726
   AR                   52.42494              30.35054              26.01760
   AR                  107.87764              31.64025              16.30703
   AR                   11.90539               6.25326              26.21224
   AR                   77.10360              22.39942               0.41564
   AR                   84.13610               1.32523              28.48651
   AR                  110.16699              59.70580              60.84187
   AR                   54.50227               2.76569              13.48524
   AR                   77.20280              55.79447              42.75628
   AR                   95.23823               7.60939              34.36147
   AR                   56.73895               1.43782               5.39546
   AR                   69.55028              28.90409              53.26661
   AR                   27.85084              26.27261              17.32236
   AR                    6.12494              30.62725              28.09016
   AR                   51.97772              56.61885               7.60533
   AR                   17.01862               2.31783               1.51872
   AR                  105.02023               0.62884               9.07505
   AR                   68.76631              45.11530              46.05328
   AR                   98.06227              49.71092              36.43267
   AR                  106.10505               9.00279              38.79301
   AR                   56.63908              16.98404              48.11866
   AR                   91.34331              52.22332               6.92438
   AR                    4.53659              12.37860               4.86551
   AR                  113.86448              18.47012               5.09686
   AR                  111.16475              56.61683              55.44037
   AR                   72.04596              25.36164              51.53614
   AR                    1.15153              31.02550              19.35068
   AR                   84.78028              50.93101              21.35480
   AR                   54.71999              44.77256              59.39878
   AR                    8.11362              22.60113              18.08769
   AR                   97.35700              23.64523              47.25192
   AR                   57.37188              32.77558              23.50124
   AR                   91.43675              23.63715              62.10774
   AR                   58.12395              27.81825               2.60017
   AR                   76.42225              44.90422              42.36863
   AR                   55.36462               3.71061              60.36098
   AR                   97.57325               0.97639              55.88142
   AR                   85.08769              24.19803              11.10428
   AR                   81.24247              34.18785              36.51560
   AR                   59.86763              50.13699               8.43854
   AR                   53.43555              16.85666              37.64083
   AR                   90.08265              11.28968               5.66470
   AR                   78.99638              29.82545               6.63332
   AR                    8.28512              28.47507              16.41544
   AR                   19.99350               5.15484              32.81327
   AR                   89.30152              26.38470              18.39826
   AR                   57.79989              13.96646               8.94849
   AR                   98.09205              39.71565              10.64352
   AR                   80.98520               1.27166               1.90544
   AR                   87.68143              41.63886              15.73533
   AR                   60.25479              43.71954              27.44267
   AR                   67.01806              49.81388              54.12697
   AR                   72.20812              56.91960              31.24698
   AR                   70.12033               6.67610              28.39362
   AR                   54.22700              28.33910               6.21934
   AR                  104.38713              61.41717              45.30990
   AR                   30.21644              28.33278              29.07334
   AR                  108.38992              61.93347               0.86219
   AR                   83.70381              30.06621              45.26441
   AR                   59.05396               3.81689              58.26981
   AR                   88.59229              50.94380              32.42492
   AR                    0.87274               7.66715              29.89550
   AR                  104.67678              35.77696              34.54829
   AR                   74.99341              33.59891              48.46843
   AR                  103.84230              57.13803              45.29992
   AR                   87.94056              53.90758              59.02640
   AR                   65.54089              62.64928              36.63904
   AR                   51.64198              39.26205              28.97824
   AR                   87.67339              17.29986              26.94940
   AR                   32.08539              14.17299               0.86663
   AR                    9.47875              15.81010              26.01030
   AR                   16.82813              23.80910               4.21503
   AR                   76.66071              42.22186              46.10325
   AR                   19.74351              13.03317              21.19015
   AR                   58.28493              61.73672              50.30693
   AR                   97.31095              49.89360              20.30903
   AR                   87.49408              18.73104              46.62431
   AR                   94.22625              25.27072              50.98142
   AR                   53.51846              24.61940              42.68214
   AR                  102.02998              39.31091              51.98606
   AR                   99.11438              13.83558              35.84504
   AR                   58.32996              11.55527              26.70938
   AR                   60.61925              17.27015               1.08045
   AR                  112.50698              25.47952              47.52965
   AR                  109.65943              15.66176              59.21120
   AR                   57.58504              32.07526               7.67718
   AR                   97.49341              28.89671              53.00301
   AR                   91.30433              42.72611               7.16319
   AR                  113.25500              34.15755               0.58361
   AR                   55.65451              28.15124              13.88691
   AR                   30.70785               6.26658               9.54107
   AR                  102.64169               3.35949              33.90685
   AR                  103.60736              34.55772              20.12289
   AR                   61.90319              61.01331              52.15742
   AR                   52.04444              21.03592              17.84890
   AR                  109.11869              29.73598              32.77520
   AR                  108.54219              37.97229              13.64405 FRACTIONAL
   AR                   95.78614              54.77827              19.04833
   AR                   98.24135              62.25538               5.56185
   AR                   11.04462              11.93194               1.05171
   AR                   80.60435              43.12862              57.16502
   AR                  103.79357              16.14469              49.11152
   AR                   96.21234              30.10886              39.76871
   AR                   73.28896              22.15916               9.75513
   AR                   66.38293               2.08690              12.65749
   AR                   71.12111              31.49650              36.17145
   AR                   75.38516              55.00290              40.09321
   AR                   51.65132              60.24512               5.67917
   AR                   65.59474              52.67785              55.32612
   AR                  110.12084               8.63735               0.35780
   AR                  103.17769               7.71497              12.66642
   AR                   84.46507              38.76241              45.88167
   AR                   77.24805              54.05460               6.62891
   AR                   67.16306              32.40991              49.63776
   AR                   79.93013              60.55770              48.06011
   AR                   83.95780              62.69635              47.83682
   AR                   69.58771              22.59178              53.57486
   AR                   52.41176              52.71107              34.80120
   AR                   61.63641               4.18109              36.25502
   AR                   89.27426               7.29538              38.12219
   AR                   84.99440               3.09375              13.25929
   AR                  110.32199               1.47210              12.66235
   AR                   79.96417              55.47921              20.55285
   AR                   78.30948              33.24247              46.41507
   AR                   80.29907              34.70820              10.34186
   AR                   19.74511              19.72187              20.12292
   AR                   51.49611              22.01856              35.86985
   AR                   61.17758              37.84493              34.38037
   AR                   55.25361              19.41633              53.73837
   AR                   93.37198              44.07061              47.68581
   AR                   64.03680               1.33194               7.03822
   AR                   97.65654              55.73093              48.03039
   AR                   25.15604               3.35188               6.50171
   AR                   85.99871              44.67736               6.87333
   AR                   62.27729              33.30677              15.31589
   AR                   87.15789               8.79037              42.71728
   AR                   66.91432              38.74079              24.73635
   AR                   63.59093               2.97416              26.35559
   AR                   88.84427              41.04459              41.27133
   AR                   64.09991              10.51623              36.59135
   AR                   59.34988              33.03081              43.22832
   AR                   77.46761               6.62965              15.84024
   AR                   90.21258              56.23216              32.25049
   AR                   60.03117              12.51908              48.38181
   AR                   78.01854              38.90411              28.02255
   AR                   67.52838              17.28677              58.50798
   AR                  101.13883              30.11990              30.52688
   AR                   72.34308              49.07842              37.25726
   AR                   13.12959              21.65433              30.93100
   AR                   75.67028               6.22872              23.00741
   AR                   11.96150              23.98763              17.75605
   AR                   83.60749               5.99397              51.92081
   AR                  103.22400              42.17796              58.57042
   AR                   83.97937              46.26905              51.93076
   AR                   78.26297              46.07125              34.10705
   AR                  112.54928              33.69608              47.80645
   AR                   82.11180               5.30045              16.79773
   AR                   16.17748               0.23221              33.31998
   AR                  110.91071              58.32552              32.08945
   AR                   97.34449               2.39535              25.44221
   AR                  102.83439              60.59171               4.09827
   AR                    9.73865              33.10684              22.61077
   AR                   18.59849              31.58794              26.54498
   AR                   92.99807              20.87478              50.83514
   AR                   80.98326              21.41960              52.04519
   AR                  107.30772              36.85815               1.39989
   AR                  100.00920              41.57540              55.13111
   AR                  101.45801              24.00620              21.34333
   AR                   64.82317              11.08074              51.25663
   AR                   75.77254              14.27660               6.69879
   AR                   93.65238              52.27382              47.22580
   AR                   97.93303              23.22095               5.65523
   AR                   20.09166              21.45868              16.35817
   AR                   81.16052              45.44584              49.29557
   AR                  103.52504              19.99457              48.40071
   AR                  112.24045              59.43855              12.48688
   AR                   54.05189              42.78199              28.22841
   AR                   85.08034              41.78938               4.50738
   AR                   79.87969              10.55870              36.09948
   AR                   87.77317              33.00984              42.01288
   AR                  102.26001              27.53758              46.56377
   AR                   57.90673              20.01142              55.60316
   AR                   90.46505              46.95158              47.11585
   AR                   91.98400              58.30781               1.54628
   AR                  112.77886              24.83985              19.75388
