       421
            32.27414            51.44117
   AR                   66.73819              23.19385              12.75849
   AR                   69.35777              45.57705              12.72946
   AR                   73.65211              45.39132              49.79555
   AR                   21.18213               9.12996               4.44618
   AR                   65.80366              35.85228              37.03003
   AR                    9.79290               0.46640              18.75370
   AR                   81.01689              29.59568              26.85943
   AR                   81.60016              19.84398              12.23764
   AR                   55.18371              14.16078               0.77729
   AR                   74.97258              48.48499              49.23424
   AR                   82.90668               8.68543              47.32380
   AR                   64.36081              22.81046              43.12506
   AR                    3.04767              24.59986              27.30180
   AR                   63.93281              21.25890               4.46717
   AR                   64.96870              31.18522               0.04569
   AR                   70.84775               7.23356               4.36943
   AR                   82.23167              49.62337              50.98473
   AR                   25.46553              13.43259              15.04788
   AR                   16.60337               3.57573              23.03451
   AR                   88.78696              27.33302              33.69205
   AR                   95.06548               2.38207              18.52653
   AR                   98.51114              38.37653              48.39157
   AR                    3.59759              28.44100              15.12475
   AR                   14.23165              21.08135              28.62297
   AR                   11.91387              21.41403              24.87668
   AR                   73.54013              22.34009               1.07010
   AR                   95.08419              33.57320              29.41903
   AR                   87.22860               3.91970              42.16994
   AR                   84.00175              17.27336              41.36247
   AR                   83.45854               7.06372              26.07357
   AR                   64.20448              11.44098              16.80182
   AR                   59.95758              30.97589              30.81394
   AR                   94.03250              25.15337              33.43912
   AR                   75.56805              51.37600              10.48832
   AR                   70.54346              47.98342               7.00723
   AR                   54.52816               3.12657              12.85916
   AR                   86.00941              37.93712              51.24759
   AR                    4.65472              23.24587              18.29684 FRACTIONAL
   AR                   19.50414              26.74813               5.48931
   AR                   92.77331              22.96049              28.73471
   AR                   23.59616               3.30679              26.07749
   AR                   14.67946              18.38120              23.28803
   AR                   81.78752              24.99007              26.30847
   AR                   95.95685              48.37397              26.50178
   AR                   51.57126              42.66141               7.79115
   AR                   84.81632              29.93240              16.42738
   AR                   76.88347               4.77682              15.26950
   AR                   82.26171              12.78806              26.62129
   AR                   77.92471              18.81721              23.28041
   AR                   78.89894              21.21632               0.74605
   AR                   81.77389               6.21265               9.66391
   AR                   26.18046              25.49545              30.57178
   AR                   85.92817              30.79570              35.44214
   AR                   59.87849              31.49570              27.14839
   AR                   84.92556              49.89464              43.47520
   AR                   60.82942              33.50064              46.28926
   AR                    8.33260              19.91087              26.57480
   AR                    3.41072              27.28696               3.63424
   AR                   60.58378              24.35927              40.29802
   AR                   81.56509              11.60686               9.58523
   AR                   84.94749              26.94129              34.30850
   AR                   16.97518              19.88578              19.46001
   AR                   62.84516              31.92580              21.64964
   AR                   61.44394              15.57164               7.33831
   AR                   90.53446              34.37824              45.59868
   AR                   23.09560              11.42406              30.53720
   AR                   96.93679              12.23618              27.25769
   AR                    4.13860              14.40880               9.28839
   AR                   61.20000              12.39296               4.23950
   AR                   68.99847              16.51053              46.81013
   AR                   29.91827              30.11470              15.14851
   AR                   49.24020              32.85857              30.44137
   AR                   60.65749              45.59218              31.14025
   AR                   75.68291              12.67524              13.02898
   AR                   12.48525              19.13216              31.43404
   AR                   76.77559              46.61673              15.44832
   AR                   52.34691               7.24990              12.50941
   AR                   12.15916               7.99994              25.19161
   AR                   83.02465              20.85050               6.30641
   AR                   94.49804              47.88705              49.36127
   AR                   53.08987              27.07529               4.80523
   AR                   81.86225               7.43178              36.20021
   AR                   64.55461              27.33395               0.23477
   AR                   90.87980              48.63188              26.58503
   AR                   52.00748              36.40043              49.80378
   AR                   51.12541              36.46452              31.54952
   AR                   93.20017              19.43351              31.60412
   AR                   75.80672              19.39520               4.36405
   AR                   92.83177              30.04027              15.29272
   AR                   83.36544              14.88407              37.16020
   AR                   90.67753              14.57011              37.96229
   AR                   17.46090               0.42960               3.23643
   AR                   76.64690              23.55158              15.47495
   AR                   98.60160               7.86284              38.51570
   AR                   71.63109              26.37944              42.69968
   AR                   81.96949               3.34934              43.07220
   AR                   89.03434              23.27772               6.07083
   AR                   82.94894              40.60917              21.21820
   AR                   68.75736              21.43863              19.05689
   AR                   96.31870              30.46983              29.70949
   AR                   62.80154               7.11297              17.83691
   AR                   64.78461              25.34971              28.05285
   AR                   88.29117              44.62651               2.47455
   AR                   56.20149              28.96098               2.18572
   AR                   78.01801              35.63278               8.00348
   AR                   95.85528              39.18925               5.09835
   AR                   58.90261              48.17609              33.04376
   AR                   78.15736              36.45843              40.72277
   AR                   68.34244              29.63263              39.71316
   AR                   90.61033              48.58408              47.24079
   AR                   98.64195               0.38834              31.65151
   AR                   55.57651              15.36905              12.61337
   AR                   96.86280              35.14365              18.04825
   AR                   57.03277               2.89520              16.15440
   AR                   87.50968               3.15120              47.61411
   AR                   67.41690              37.72164              17.00228
   AR                   72.02761              11.36828               9.77243
   AR                   63.13852              48.32329              34.12219
   AR                   81.37833              41.40250              38.94622
   AR                   50.12624              12.43739              17.42709
   AR                   74.73137               4.72166              44.22431
   AR                   86.76041              43.27527              50.04286
   AR                   17.54564              12.60972              17.24727
   AR                   99.07188              35.31097              24.55964
   AR                   66.10590               0.21400              25.39821
   AR                   81.99668              44.82354              50.25823
   AR                   82.95046               5.98691              30.60112
   AR                   96.29738              10.54979              21.59559
   AR                   61.94697              29.07346              23.43868
   AR                   79.51927              25.49702               1.44846
   AR                   58.54537               2.73515               9.78726
   AR                    6.22236              30.42503              18.42288
   AR                   59.62711              22.22387              14.73952
   AR                   16.36730              14.14899              24.57752
   AR                   12.46207               1.94781              17.67816
   AR                   74.91134              20.24246              27.22760
   AR                   83.46074              41.84378               7.10677
   AR                   70.63504              13.52267              37.90684
   AR                   71.71085               4.95200              40.41367
   AR                   86.16603              17.46396              46.21389
   AR                   67.04345              12.70469               5.62811
   AR                   62.49843               1.25575              23.44632
   AR                   11.71865              18.61949               7.79181
   AR                   50.15429              29.05929              28.43867
   AR                   21.77497              15.64628               1.10931
   AR                   15.80596              25.83611              13.74945
   AR                   54.25891              35.42738               6.47170
   AR                   77.88045               0.74424              19.07567
   AR                   22.93347               8.02394              12.13864
   AR                   83.37912              21.17355              26.82764
   AR                   17.66339              13.56371              11.04789
   AR                    7.57792               8.73903              30.74597
   AR                   57.10539              28.86085              30.39744
   AR                   54.15953              30.48145              25.57240
   AR                    7.51671              24.80879              12.20981
   AR                   68.83367              11.92706              47.90939
   AR                    4.95627               3.35037               8.03652
   AR                   59.38083              14.76139              41.98209
   AR                   79.65504              32.66806              34.98304
   AR                   58.36634              45.29021              10.03911
   AR                   80.65828              26.60209              32.81374
   AR                   69.34958              44.01861              49.95756
   AR                   71.73185              50.08264              15.43122
   AR                   90.52347              30.15329              51.42945
   AR                   92.00255              39.80864              31.94785
   AR                   49.85707              12.53134               9.03762
   AR                   72.11026              18.17234              29.51869
   AR                   49.28197               1.21233               9.96446
   AR                   85.29528               5.23932              39.16634
   AR                   78.70206              24.03524              36.15170
   AR                   84.51652              23.63650              32.57626
   AR                   88.88543              26.90150              28.76013
   AR                   90.73930              15.23266               0.77251
   AR                   77.27793              15.75127              23.73154
   AR                   86.00407              27.03608               7.92681
   AR                   79.28333              28.71198              23.59065
   AR                   57.02430              39.61387              49.94212
   AR                   27.06061              15.26850              20.89062
   AR                   72.28596              47.08023              29.87955
   AR                   57.39534              17.17811               5.79912
   AR                   69.13301              36.75491              43.65076
   AR                   98.60326               5.33985              24.85222
   AR                   78.47998              37.87312              45.87624
   AR                   95.21453              49.46969              15.52498
   AR                   98.29130              34.98517               5.95197
   AR                   93.83556              35.83968              41.93953
   AR                   24.31258              31.95295              19.83984
   AR                   89.64317              24.63883              46.76153
   AR                   85.79251              41.42589              33.18408
   AR                   64.30529              34.89841              16.59512
   AR                   55.19978              29.96998              10.45900
   AR                   82.33806              19.33754              24.08933
   AR                   81.64762              43.86888              19.91185
   AR                   23.29058              23.10639              21.66452
   AR                   81.93116               4.51165              38.47813
   AR                   95.01239               6.74419              46.98403
   AR                   93.79255               0.41100              42.54349
   AR                   54.88067               6.00924              36.96021
   AR                   98.65329              42.32822              20.14373
   AR                   91.36127              49.55422              43.48041
   AR                   62.64082               1.63732              34.93889
   AR                   75.24575               3.78315              25.13566
   AR                   55.75993              38.25632              44.26113
   AR                   97.26958              13.39350              14.04868
   AR                   96.54904              39.09631              51.27629
   AR                   75.41689              35.21029              46.21927
   AR                   54.21925              38.48743               7.39597
   AR                   95.57515               9.94586              18.11190
   AR                   73.60835              30.88158              13.25990
   AR                   14.23380              20.30306              11.72412
   AR                   89.81898              51.34239              11.91638
   AR                   61.37681              18.14201              17.26382
   AR                   68.19081              37.03933               3.70700
   AR                   81.02369              32.39708               3.08627
   AR                   59.05884              23.37964              44.44294
   AR                   77.36401               1.87260              34.35640
   AR                   88.81169              13.96566              28.45071
   AR                   70.43460               8.74731              27.65483
   AR                   12.79652               8.88955              14.45326
   AR                   79.10504               8.26498               0.51246
   AR                   95.94758              30.80869              33.96811
   AR                   31.40795              30.22963              18.75402
   AR                    4.49924              23.20034              21.78903
   AR                   10.74138              25.31290              31.97431
   AR                   58.79348               2.23812              50.37106
   AR                   79.08684              45.29651              25.43606
   AR                   76.08840              19.29937              32.85106
   AR                   78.77212              49.16428              48.70857
   AR                   92.68554               6.74895               9.04916
   AR                   92.44319               9.82186              22.90997
   AR                   57.59983              50.06534              36.76810
   AR                   62.71538              41.78481              45.99332
   AR                   84.56385              48.10560              25.11497
   AR                   80.48886              19.20644              16.12624
   AR                   72.09779              42.17287              40.15879
   AR                   83.21842              10.28630              19.23730
   AR                   28.08441               9.36615              19.88406
   AR                   73.45574              21.17512              15.58138
   AR                   70.11015              22.62181               5.33973
   AR                   16.84528               0.58649              15.71261
   AR                   95.99599              33.02541              24.35294
   AR                   61.42311               0.30955              29.25855
   AR                    1.26384              17.67420              30.89025
   AR                   23.44994              16.47905              24.91016
   AR                   66.07436              46.46467              10.48082
   AR                   66.70325              45.74319              14.37899
   AR                   60.68199              12.85758              10.31528
   AR                   87.38566               7.02678              47.52794
   AR                   95.55436               5.50018              29.49162
   AR                   54.87783              34.45197              48.56570
   AR                   65.79668              28.06874              21.89622
   AR                   97.80504              26.22526               7.76108
   AR                   67.77778              40.79870              44.69256
   AR                   71.38071              38.13020              20.23482
   AR                    9.98466               7.73166               8.23842
   AR                   51.58787              47.88033              25.68511
   AR                   53.95179               4.69565               6.27164
   AR                   87.70969              48.83481              39.13291
   AR                   53.63163              43.95286              17.93509
   AR                   50.48445              41.92757               0.67511
   AR                   77.29237              47.26254               7.09312
   AR                   22.46664              16.71827              16.82787
   AR                   89.11467              40.34926              12.67639
   AR                   56.85642              26.72489              47.93123
   AR                   64.06552              48.63985              45.79209
   AR                   65.71293              49.85100              22.50250
   AR                   64.96874               1.19033               5.04111
   AR                   55.98174              44.38683              25.53858
   AR                   97.87140              27.73367              18.21046
   AR                   62.29092              13.42194              43.14176
   AR                   15.24610              22.48968              31.75413
   AR                   50.16730               3.40357              17.73381
   AR                   91.30397              45.12998               6.31840
   AR                   84.30895              10.26420               5.11820
   AR                   68.45935              16.71876              26.40785
   AR                   76.83900              20.31733               9.68497
   AR                   24.27510               8.69626              27.13439
   AR                    9.41004              31.82450              10.48878
   AR                   78.85072              23.79166              10.10710
   AR                   54.73523              35.03879              37.88513
   AR                   53.70058              51.10812              34.51890
   AR                    1.51092              20.22252              21.57737
   AR                   69.03342              41.00638              10.39159
   AR                   82.53367              26.53885              15.78062
   AR                   73.84271              12.33941              20.87365
   AR                   22.00620               5.45465              13.90853
   AR                   50.26322              18.29026              50.91892
   AR                   91.85761              38.98065              10.38394
   AR                    3.46819               5.65847              20.99684
   AR                   19.38263              14.58219              15.18727
   AR                    4.75052              22.77713               2.43947
   AR                    4.56817              25.75597              11.98044
   AR                   55.74054               1.29136               0.35845
   AR                    1.48153               7.53314              28.59295
   AR                   92.94839              11.45165               5.52842
   AR                   98.01216              41.08701              23.92005
   AR                   54.86831              46.55369              32.54115
   AR                   67.55005               7.80182              38.66003
   AR                   92.28255              40.24590              25.55080
   AR                   15.65803               7.79780               7.61100
   AR                   71.53650              49.25053              26.48005
   AR                   62.55630              38.15846              17.25067
   AR                   61.52132               7.75243              42.60545
   AR                   65.28448              41.08081              28.83533
   AR                   65.70835              40.35652               5.61897
   AR                   10.68870              10.44167              22.49984
   AR                   78.88215              10.48890              33.19550
   AR                   50.63343               2.33069              22.99534
   AR                   49.32421               5.17444              11.37766
   AR                   74.91014              17.35740              49.72840
   AR                   79.58032              46.16225              36.66114
   AR                    1.81792              22.00203               4.51087
   AR                   48.53866              15.16311              39.09548
   AR                   86.07916              16.47643              22.67147
   AR                   19.51081              12.17286               6.45705
   AR                   83.79455               3.08286              18.57284
   AR                    9.55856              11.35959               7.05494
   AR                   57.67136              13.06690               3.12067
   AR                   65.80714              36.49044              28.60867
   AR                   67.91724              25.70469              10.22669
   AR                   90.60985               6.64967              49.42848
   AR                   86.90908              47.67191              12.86646
   AR                   91.11428              34.06316              50.14761
   AR                   74.21682              51.43342              35.86163
   AR                   65.49386               9.08769              13.40102
   AR                   54.40832              37.79779               0.96133
   AR                   92.03530              20.61090              19.84053
   AR                   51.21092              15.23163              12.70203
   AR                   56.61090               5.63279              48.86479
   AR                   81.33658               3.68571               7.41131
   AR                   49.72532              37.18082               1.38748
   AR                   62.20324              42.14061              41.32124
   AR                   58.02568              42.82962               4.06699
   AR                   97.97054              24.44783              24.42455
   AR                   69.49691              37.49282               7.45549
   AR                   93.33431              40.80144              18.88613
   AR                   97.56991              15.13693              19.20815
   AR                   25.10081               8.91624               3.86132
   AR                   76.75072              45.44978              33.56272
   AR                   61.92023              34.88891               3.56084
   AR                   93.90074              48.81841               6.30935
   AR                   93.79433              51.11625              27.27069
   AR                   91.11991              42.79292              17.49636
   AR                   85.70626               2.39831              27.89673
   AR                   98.66589              50.19509              40.39801
   AR                   79.34693              40.18511              42.27951
   AR                   97.67195               6.70541              33.69775
   AR                   95.76647              43.05072               4.67515
   AR                   54.09025               0.41194              21.25561
   AR                   84.41876              10.52973               1.33771
   AR                   84.74980              19.21872              19.58258
   AR                    8.15836              13.32835              20.87146
   AR                   58.86117              47.64717              12.29726
   AR                   73.51011              38.91872              42.17126
   AR                   64.75863              46.07141              25.25698
   AR                   31.64920               3.42318              17.33391
   AR                   61.84640              14.79245              20.33089
   AR                   24.44888               3.28993               5.34467
   AR                    0.28026              27.64260              28.19846
   AR                   52.59829              42.23245              28.04411
   AR                   51.14574              12.14419               1.03747
   AR                   87.98977               2.55717               0.23618
   AR                   95.84187              12.47997              34.75178
   AR                   96.04763               1.58474              29.85094
   AR                   76.17885              30.48279               2.92825
   AR                   51.39769              27.51862              49.47711
   AR                   56.75622              36.30086               2.91853
   AR                   49.80394               7.91273              28.19074
   AR                   67.79127               6.67776              42.57191
   AR                   49.25050               7.98920              14.24339
   AR                   81.06678              15.28242              40.27221
   AR                   49.24944              14.68806              21.89591
   AR                    6.71641              31.66429               0.01975
   AR                    2.99588              17.00796              25.01095
   AR                   78.50286              33.44433              38.36053
   AR                   98.95169              31.45158              26.76634
   AR                   63.09422              27.36497              47.14360
   AR                   70.89634              29.70985              16.91707
   AR                   86.76475              40.18028              21.44464
   AR                   50.09767              15.40049              27.56590
   AR                   78.30581               0.47994              40.52944
   AR                   94.93112              43.89705              44.32114
   AR                   64.95644               6.68191              48.88261
   AR                   76.79469              37.76600              18.61754
   AR                   56.78358              38.48534              27.60868
   AR                   99.20353              25.26985               4.54696
   AR                   67.93405               1.85639              40.34580
   AR                   88.32185              50.65903              42.59582
   AR                   23.94471               1.50262               8.13952
   AR                   83.40158               2.90792              10.49460
   AR                   53.37628              26.17117              13.11933
   AR                    4.83444              18.65980               7.59278
   AR                   66.11995               3.12445              48.78075
   AR                   86.38785              47.34269              34.10412
   AR                   81.16037              23.70711              47.29459
   AR                   50.34998              47.03451              17.43046
   AR                   73.89358              47.23675              21.68501
   AR                   52.02825              47.36323              44.16913
   AR                   87.18124              45.61586              41.40248
   AR                   15.32283               5.29280              10.66733
   AR                   65.33540              15.62524              49.83885
   AR                   98.07431               9.56716              11.50524
   AR                   90.49341              35.03146              38.67452
   AR                   59.86653              32.86405               8.86960
   AR                   93.94776               5.62707              34.93735
   AR                    7.10916              25.60711               5.21616
   AR                   70.50829              47.20626              49.40910
   AR                   79.41376              36.42769              33.45205
   AR                   72.78236              25.14592              47.26936
   AR                   94.10515               4.07217              14.63861
   AR                   95.50074              11.25258               3.31227
   AR                   26.41579              10.51301              22.94362
   AR                   86.75957              26.49705              40.60319
   AR                   88.14998              10.97084              21.52462
   AR                   77.45262              27.16760              15.38668
   AR                   71.69083               7.49161              24.79599
   AR                   27.33082              20.15543              17.83545
   AR                   68.95339              45.31125              42.01989
   AR                   83.98647              13.70774               0.04189
   AR                   20.07708              14.27858              24.36638
   AR                   53.59531              41.29284              20.80492
