       421
            34.91932            50.80128
   AR                   31.84639               7.07695              18.38987
   AR                   59.33151               4.32702              10.88216
   AR                   60.45610              46.23986              46.06591
   AR                   93.76421              35.05416              42.56647
   AR                   74.61183              26.96437              24.66619
   AR                   60.93583              40.70921              45.16892
   AR                   70.36937               3.01415              23.36195
   AR                   13.60198               1.56711              27.36928
   AR                   10.37261               8.48253               7.93654
   AR                   54.61059              30.46744              13.91843
   AR                   16.57626               3.50829              33.23477
   AR                   63.69959              12.09971              40.18622
   AR                   61.96747              46.17500               8.28942
   AR                   55.70107              10.58655              30.49882
   AR                   65.48969              42.67294              23.45555
   AR                   79.68662              16.84307              13.51254
   AR                   91.66103              28.55360              32.95401
   AR                   92.20665              10.24991              27.91954
   AR                   33.56160               6.56699               7.13653
   AR                    1.04831              11.54011              13.39153
   AR                   20.04687              10.96934              23.72918
   AR                   19.41894               3.51616              11.90279
   AR                   95.98464              42.92368              43.92688
   AR                   30.22804               0.83115              26.24854
   AR                   54.36501              35.84046               1.67570
   AR                   55.50282               7.63003              19.47571
   AR                   87.00898              18.09090               8.82297
   AR                   97.26518              49.77159              27.47217
   AR                   33.99520              25.65523              20.01224
   AR                   96.24906              39.50572              22.32306
   AR                   53.13751               8.53363              24.62422
   AR                   66.00054              36.40698              48.87813
   AR                   60.04301              39.94863              12.79487
   AR                   94.17227              17.12950              42.86435
   AR                   15.38741              30.97356              33.17781
   AR                   79.87754              43.32565              15.31381
   AR                   80.25736               2.06933              31.13416
   AR                   99.82493              31.05567               0.18310
   AR                   77.87668              35.04834               9.43693
   AR                   76.24030              43.50140              38.64009
   AR                   64.61847              25.81136               1.53802
   AR                   52.94096               8.17728              12.49345
   AR                   79.11397              22.35051              10.68058
   AR                   81.55931              32.75248              48.72864
   AR                   88.26223              27.85640              38.62639
   AR                   83.24169              42.76109              40.49289
   AR                   70.37225              14.88549              23.79077
   AR                   29.67156              17.38894              10.64061
   AR                    9.70120              32.75224              29.52646
   AR                   69.23758              23.17958              11.69205
   AR                    0.74058               6.72329              34.78565
   AR                   58.16686              44.08819              12.43340
   AR                   12.07352              18.68387               1.92952 FRACTIONAL
   AR                   70.42639              46.15354              39.73604
   AR                   77.97479              26.19970               7.87572
   AR                    4.61882              30.78304              29.80370
   AR                    6.69978               3.11604               7.76220
   AR                   17.79592               1.17706              17.11417
   AR                   54.22096              20.65641              31.80055
   AR                    5.68611              28.51249              34.74862
   AR                  101.82679              40.43243              13.11208
   AR                    0.39799              31.20911              19.83679
   AR                   60.46676              19.33863              31.53339
   AR                    7.59370              13.38957              27.11991
   AR                   81.05372              41.83368              32.57356
   AR                  102.77714              44.99999               4.77395
   AR                   65.48388              28.23023              49.57944
   AR                   87.09088              35.12375              26.21551
   AR                   53.62513              39.77615              44.58997
   AR                   72.89326              20.41596              11.99837
   AR                  100.39213              19.81150              14.00553
   AR                   59.39574              48.42341               7.88553
   AR                   53.22217              12.05720              23.10647
   AR                   29.59516               9.03873              27.65956
   AR                   80.61294              32.54907              43.73816
   AR                   61.42151              22.92472              31.48938
   AR                   84.51785              12.90970              21.17594
   AR                  101.13032              42.28596              34.31907
   AR                   79.75605              13.20358              18.57732
   AR                   12.29455              17.72262              10.82085
   AR                   90.89436               4.85090              12.62045
   AR                   83.94998              46.96337              34.62470
   AR                  101.64954               4.69064              42.60908
   AR                   72.33909               6.28012              31.64012
   AR                   88.14363               0.78296              28.14948
   AR                   79.70561              21.82407              45.82618
   AR                   81.76447              12.01556               8.38386
   AR                   13.81670              33.12088               8.90403
   AR                   87.27908              37.03274              48.35157
   AR                   55.98745              32.19330              27.84920
   AR                   70.88691              13.20792              32.70688
   AR                   86.83387              39.93708              34.51760
   AR                   95.36919              28.10951              14.67059
   AR                    2.01277              10.85852              28.12223
   AR                   73.46630              12.27044              29.77518
   AR                   64.35598              34.23085              40.21501
   AR                   21.68570              11.74637               0.82922
   AR                   26.28855              15.93332               6.28977
   AR                   54.43992              32.00650              33.92930
   AR                   15.73174              23.77553              30.27372
   AR                   59.28547              21.93816              26.26361
   AR                   93.95897               5.65446               8.52862
   AR                    6.10819              16.39280              34.29032
   AR                   74.64484              40.07602              31.93415
   AR                   75.24905              21.97881               6.27026
   AR                   55.84236              40.75783               0.94915
   AR                   75.67277              47.83660               7.02079
   AR                   34.82120               9.20559              17.90814
   AR                   92.60713              28.27382              29.48861
   AR                   83.90261              27.43833              47.61811
   AR                    3.35926               9.39026              16.05600
   AR                   64.93191               2.48291              27.35363
   AR                   97.13621              31.54731              38.46726
   AR                   55.33755              49.99140              39.85404
   AR                   55.16555              12.39117               9.41814
   AR                   74.46610              12.64674              37.50714
   AR                   14.72825              12.88576              15.62278
   AR                   96.90073              42.95384              27.44907
   AR                   13.05160              16.49396              33.75708
   AR                   80.66277              46.58233              44.10861
   AR                   77.37149              41.53368               9.96075
   AR                   55.76928              21.24281              38.86094
   AR                    6.14644              11.76428              14.93440
   AR                   80.77210              22.98548               1.06298
   AR                   15.20490               6.12114              20.78743
   AR                   68.40858              12.52617              49.59172
   AR                   91.27295              40.78935               3.36767
   AR                   18.20465              26.74627              27.48604
   AR                   74.18121              23.90974              27.90025
   AR                    3.73774              33.53657               4.84179
   AR                   68.28282              25.21859               5.30899
   AR                   74.99548              48.37008              10.42444
   AR                   57.00983              13.90624              48.50432
   AR                    5.95383              20.92500              22.03105
   AR                   64.26572               7.86872               2.08535
   AR                   84.03891               4.07949              48.01707
   AR                   89.92822               0.00581               6.07063
   AR                   53.21993              28.61045              35.25514
   AR                   21.64310              16.81453               4.71386
   AR                   67.27961              18.75620               2.50573
   AR                   59.68233              31.63932              15.02428
   AR                   59.19358              36.96316               0.83475
   AR                   81.92167              15.70647              19.67971
   AR                   91.79031              39.94518              50.76599
   AR                   76.40428              12.87788              16.78689
   AR                   54.95599              50.18677              43.87755
   AR                   93.16732              32.19842              23.08996
   AR                   71.22248              17.55751              36.18359
   AR                   81.06680              28.68383               3.88509
   AR                   55.09230              16.30249              31.49227
   AR                   99.19525               0.56657               0.05974
   AR                   84.46219              32.27959              16.56474
   AR                   86.82690              44.92699              36.80637
   AR                   86.00375               7.79141              12.60939
   AR                  101.43761               5.52534              12.40314
   AR                   81.90352               6.95774              17.48354
   AR                    3.55090              16.63714              26.92869
   AR                   66.19805              13.51167              46.54118
   AR                   56.30053              44.75098              20.16104
   AR                   23.56926              23.53738               5.56279
   AR                   60.04140              43.25889              31.71114
   AR                   93.69191              29.89127              38.98386
   AR                   34.24074               8.33425              22.52191
   AR                   16.03288              22.01057              11.52751
   AR                   92.70149              48.19970              30.16028
   AR                   74.83295              25.79290              35.23168
   AR                   73.62279               9.18230              43.27172
   AR                   57.55036              38.32813              27.42431
   AR                   23.44309               6.64794              34.46144
   AR                   64.77909               3.34580              48.04493
   AR                   62.26781              46.72216              37.36154
   AR                   65.47526              29.50551              43.38245
   AR                   75.71001              42.29689              41.81424
   AR                   70.88078              45.36935              12.83068
   AR                   17.75562               1.05036              29.99459
   AR                   63.40436              22.25272               3.92295
   AR                   87.68791               3.32406              14.58789
   AR                   70.13923              29.56973              35.01554
   AR                   58.35975              10.41675              22.53537
   AR                   71.82607              33.17623              38.51617
   AR                   60.54898               4.90759              29.27379
   AR                   24.29875              33.11936              15.36148
   AR                   56.31127              36.17642              11.44269
   AR                   74.56886              46.25001              34.97733
   AR                   54.53037               8.67056               1.31449
   AR                  101.33133              45.76774              36.46264
   AR                   24.59112              33.87449              18.89843
   AR                   56.78019              39.16649              46.84881
   AR                   23.33682               3.98989              18.16010
   AR                   78.75228              10.51985              20.80230
   AR                   81.55102              20.63193              36.12182
   AR                   98.56481              16.89097               9.33061
   AR                   64.66933              48.26250              22.20912
   AR                    8.86870              10.33714              31.11769
   AR                   53.94219               1.79532              30.46114
   AR                   81.72093               9.44143               1.85639
   AR                   62.33807              48.19745               5.15864
   AR                  100.07476              43.46449              12.37975
   AR                   70.32271              33.69799              42.15331
   AR                   88.10742              12.45763              30.56687
   AR                   65.12030              29.91500               8.30073
   AR                   58.41070              44.99991               8.30970
   AR                    0.40044              30.10302              25.98072
   AR                   78.19962               6.95447              38.86668
   AR                   19.32863              30.15537              27.92751
   AR                   98.73421              13.42575              17.68013
   AR                   65.80541              15.10072              13.24755
   AR                   11.45389              14.19228               1.21123
   AR                   59.20895              24.59708              50.40385
   AR                   84.68588              12.41255              34.11398
   AR                   89.39997              28.97642              26.05906
   AR                   94.88423               9.66356              43.64676
   AR                   78.85580              41.69821              29.91070
   AR                   32.68884               9.51589               9.59584
   AR                   63.08484               0.56939              23.56773
   AR                   60.25036              21.97133              18.88567
   AR                   72.49763              41.85753              36.54879
   AR                   91.04166              21.78506              22.81272
   AR                    3.62670               6.81505              32.53853
   AR                   33.79866              33.75894               5.59873
   AR                   85.41147              15.83309               5.55816
   AR                   68.21797              21.51533              42.02034
   AR                    8.85429               2.76614               5.02936
   AR                   86.53750              21.44993              31.30241
   AR                   91.41809              11.18432               5.53964
   AR                   25.57625               6.41944               2.57967
   AR                   70.14675              11.44372               4.46916
   AR                   89.99029              48.95753              49.88948
   AR                   91.88459              38.25128              29.44701
   AR                  102.87138               6.64988              18.61938
   AR                   54.36621              29.06763               8.03095
   AR                   75.24949               0.18780               1.47623
   AR                   54.56202              25.33388              11.53384
   AR                   85.54034              45.66986              14.27560
   AR                   59.93609              47.39141              49.96447
   AR                   66.69884              37.95792              22.32912
   AR                   72.42027              24.26451              19.95599
   AR                   58.68244              37.44066              32.11896
   AR                   57.27683               5.30858              49.02433
   AR                   66.60159               4.13912              18.67606
   AR                   31.45369              32.46014              27.70354
   AR                   12.22080              16.05139               7.76004
   AR                   32.42493               8.75413              30.45886
   AR                   61.68238              50.44370              36.92204
   AR                   61.91964              43.38865              10.69753
   AR                   56.46635              18.73633              15.99046
   AR                   75.86794              17.92996              13.30258
   AR                   55.35063              14.80686              36.05020
   AR                   59.83712              42.83679              17.05440
   AR                   25.62553               5.61917              13.90951
   AR                   86.26388              31.33043              20.67007
   AR                   68.26445              47.58963               5.80810
   AR                   93.49509              47.86517              44.53445
   AR                   54.34260              29.14234              39.83640
   AR                   88.96479              36.30342              41.43678
   AR                   59.73134               5.43397              23.84283
   AR                    8.46946              23.27762              34.51369
   AR                   76.09524              43.91317               7.31169
   AR                   80.38039              38.26929              39.02786
   AR                    4.74794              25.18153              31.34456
   AR                    0.81971              12.27962              23.34457
   AR                   69.24106              37.40742              44.63748
   AR                   79.83041               7.71077              48.87011
   AR                   75.81306              20.08381              10.26330
   AR                   10.94010               5.66736              17.04314
   AR                   81.97249              10.31303              20.01272
   AR                   86.40467              34.45603              33.35937
   AR                   64.38797               4.76085              37.42991
   AR                   26.25097               7.60207              33.44944
   AR                   62.42694               5.52653              16.95762
   AR                   55.61296              40.49719              34.36210
   AR                   96.50681              21.12702              47.23161
   AR                   97.27326              47.07840              36.84902
   AR                   84.42724              22.20127              28.12556
   AR                   59.14823              33.78954               5.77808
   AR                   83.73818              24.24759              30.48087
   AR                   59.50752              15.62478              42.03297
   AR                   65.56870              39.40876              45.51281
   AR                   54.79949              34.33169              37.39972
   AR                   79.11396              17.72702              19.26873
   AR                   99.79006               9.03221              47.87742
   AR                   74.95332              18.91632              23.88338
   AR                   13.63654              28.90217              20.59976
   AR                   56.09226              13.48026              20.16426
   AR                   52.74825              31.90545              37.96231
   AR                   18.71941              24.33371              24.16503
   AR                   23.18507              10.48645               4.02746
   AR                   64.50327              10.69377              14.39450
   AR                   21.98799              28.11856               8.22145
   AR                   54.55460              27.25742              27.36906
   AR                   78.72540              20.61097              25.00111
   AR                   21.66025              23.51460              24.09812
   AR                   84.53953              44.60794              17.34004
   AR                   91.41825              18.76701              32.98168
   AR                   94.08015              48.13902              35.44011
   AR                   15.18977              25.84593               1.41939
   AR                    1.00587              20.55011               9.56622
   AR                   83.26930              40.63535              17.61616
   AR                   75.41791               8.65206              50.65912
   AR                   82.21048              27.44930               0.05516
   AR                   32.03284              16.91514              24.24325
   AR                   86.08884              31.68961              26.12414
   AR                   61.93746               1.65494              17.50206
   AR                   94.18803              21.23463              13.68626
   AR                   77.35003              17.31790               8.96921
   AR                   62.65839              11.59424               7.64762
   AR                   99.31130              35.50247              17.45679
   AR                    8.88778              10.69046               1.78449
   AR                   70.96302              21.32769              48.12736
   AR                   68.80606              11.73103              25.04228
   AR                   53.28240              28.80099              43.36929
   AR                   62.84435               8.72720              40.83216
   AR                   70.89610              47.14721              22.42836
   AR                    1.66995              12.66764              19.02195
   AR                   74.74331               4.06923              26.01177
   AR                   17.15313               5.58153               8.67440
   AR                   78.59544              38.66061              35.51115
   AR                   84.56119              24.39814              49.64593
   AR                   69.70104              34.55554               3.08316
   AR                   68.13337              21.89858               8.98193
   AR                   69.97428               3.34988              27.17114
   AR                   12.00581              23.76904              30.13951
   AR                   84.62544              50.21567              30.21098
   AR                   21.94868              22.79878              10.78147
   AR                   66.86054              32.44071              45.06167
   AR                   81.84035              22.32269              41.67571
   AR                   33.26804              28.45624              17.49638
   AR                   54.99950               2.13126              13.55711
   AR                   81.80186              48.45066              30.37465
   AR                   72.00848              23.64093               9.55116
   AR                   77.51679              16.39930              23.67623
   AR                   66.07602              46.23223              40.79463
   AR                   92.08387               0.23587              44.78499
   AR                   68.10222              28.17612              30.22428
   AR                   32.81616              19.04129              13.33899
   AR                   16.40853               6.93449              33.63578
   AR                   55.01842              24.88829               7.48294
   AR                   25.99247              14.64457              22.14031
   AR                   82.71500              50.76749              33.14234
   AR                   59.45227              46.33119              14.74226
   AR                   64.02677              45.37989               1.30419
   AR                   66.07452              18.00776              48.26385
   AR                  102.73171              10.72976              48.88041
   AR                   60.50448              19.89353              38.22090
   AR                   59.13286               7.46255              42.93791
   AR                    6.62937               1.50429              20.78481
   AR                   10.73236              27.99889              17.44708
   AR                  100.42578              17.21271               4.43370
   AR                   76.76027               8.83727              32.90447
   AR                   96.16450              38.83633              34.04610
   AR                   22.54714               1.34819              13.38509
   AR                   94.40240              42.44031              16.18824
   AR                   85.79395              30.08152              33.56392
   AR                    5.33372              13.23301              19.64857
   AR                   23.67554              19.87140               5.42328
   AR                   94.01351              19.95179              39.43768
   AR                   90.17945              42.32198              47.17832
   AR                   79.48714              11.90146              47.51725
   AR                   56.52970              25.78577              39.33013
   AR                   57.43575              33.25088              23.13979
   AR                  100.86933              33.70188              32.07149
   AR                   73.13168              36.23523              13.99623
   AR                   88.69388              42.33301              15.57223
   AR                   69.09723              14.09145              43.67024
   AR                   24.16553               3.25149               2.11566
   AR                   29.22113              18.81733              34.45019
   AR                   72.58877              24.50473              12.93134
   AR                   66.70150              13.02789              22.30732
   AR                  100.87109              36.59573              25.37751
   AR                   89.43330              17.57264              11.86775
   AR                   82.24944              18.86053              32.51336
   AR                   13.60484              29.61039              16.05127
   AR                   93.11228              31.34386              43.83211
   AR                   72.00649              39.94376              17.49783
   AR                   90.39892              32.21001              38.96808
   AR                   59.92347               1.35160               5.58313
   AR                   58.80504              12.92429              31.06217
   AR                   70.02724              31.82944              28.02422
   AR                    8.06937               0.53914              32.90423
   AR                   78.69791              27.85973              20.41924
   AR                   94.66293               2.20383              48.47159
   AR                   53.90440              12.10247               0.49830
   AR                   52.61594              23.72912              24.58157
   AR                   60.75274              13.73500              34.13652
   AR                  102.43202               8.75480               6.22679
   AR                   90.27210              26.12817               9.84356
   AR                   92.62793              36.93025               3.26909
   AR                   30.34973              16.99636               5.59622
   AR                   63.15293               5.20186              21.87363
   AR                   93.14612              23.94345              26.45347
   AR                   74.74222              18.24796              42.50067
   AR                   96.57510              24.06834               2.07777
   AR                   99.37376               3.55334              39.68504
   AR                   62.36827              37.48958               7.53111
   AR                   54.33686               1.44001              47.88464
   AR                   93.02129              41.24067              44.72454
   AR                   54.55714               5.82751              29.78811
   AR                   10.34803              30.92128              33.72429
   AR                   63.04807               2.53715              40.31721
   AR                   60.11760              12.56504              43.81632
   AR                   98.51958               6.89811               8.29222
   AR                   90.49399              35.59778              14.21858
   AR                   54.35405              11.98015              40.57753
   AR                   57.69292              10.25687              13.66691
   AR                   79.22624              24.23879              23.64291
   AR                   87.90171              22.93384              27.41542
   AR                   98.04409               4.07796              10.29370
   AR                   12.16730               9.24277              34.41389
   AR                   57.33534              41.89304              28.49427
   AR                   22.47829               3.73886               4.98013
   AR                   90.44958              11.10490              34.18560
   AR                   61.41697               7.46979               4.76236
   AR                   21.50304              19.49358               2.17347
   AR                   33.55719              20.24474              24.44585
   AR                   71.26663              38.64804              32.73462
   AR                   63.46478              11.95822              31.60007
   AR                   99.39755              25.65234              31.49132
   AR                   12.50835              14.94611              16.58958
   AR                   12.16046              10.24940              15.83148
   AR                   77.53259              10.87508               8.79134
   AR                    9.23894              23.21421              22.33602
