       421
            34.33601            49.87140
   AR                   93.17996              19.95444               9.17194
   AR                   70.42272              28.12120              47.25561
   AR                   91.80167              46.19174              33.66071
   AR                   90.96126              23.28538              16.85611
   AR                   21.04642              12.07857              22.86685
   AR                   63.07926              28.84405              33.07440
   AR                   23.34733               1.81209              26.70891
   AR                   88.45712              41.82247              21.51593
   AR                   31.02598              22.01584              12.63574
   AR                   89.74274              15.69415              25.48341
   AR                   60.75108              22.58075              46.50795
   AR                   86.86256              15.21838              23.15106
   AR                   94.24685              16.10472              48.15878
   AR                    2.16430              21.06266              29.97439
   AR                   83.92529               3.24046              35.98490
   AR                   64.36817              24.13732              18.71590
   AR                   83.19692              23.30145              46.56590
   AR                   90.54654              29.82135              38.15526
   AR                   99.15970               7.01137              36.62382
   AR                   81.48081              18.36888               1.56443
   AR                   58.03686               7.84976               6.74590
   AR                   58.03905              43.45628              23.78749
   AR                   78.92106              26.75928              12.49784
   AR                   56.49517              45.39013              10.06791
   AR                   61.14925              31.00225              35.69090
   AR                   65.13002              18.91830              33.30869
   AR                   84.94534              42.25018              37.05542
   AR                    1.60368              31.74462               9.30871
   AR                   93.84938              24.56208              14.25495
   AR                   65.80826               6.85549               2.18287
   AR                   56.12736              21.48910               0.66906
   AR                   75.57181              16.13427              24.73576
   AR                   63.13104               9.66492              33.06799
   AR                   82.28641              44.88887              27.83652
   AR                   27.66274               6.94386               1.77705
   AR                   24.09696              13.26043               6.39711
   AR                   80.47698              36.25729              24.84621
   AR                   95.77975              22.01316              31.35105
   AR                   86.41957              23.35109              28.54199
   AR                   28.68130              15.61171              31.68930
   AR                   73.32689              29.10983               6.93007
   AR                   98.06770              15.13340              45.47274
   AR                   70.53381               0.49007              33.36241
   AR                   72.89408              13.61193              12.11246
   AR                   88.84412              14.67542               2.66545
   AR                   79.89086              45.80001              45.06327
   AR                   93.55301              19.39367               5.78156
   AR                   95.60277               6.31302              39.18017
   AR                   61.46366              13.52835              31.13752
   AR                   89.83559               0.61990               3.37481
   AR                   78.30196               8.31185              38.05382
   AR                   99.49026              17.90543              26.46952
   AR                   65.51662               0.57804               6.73154
   AR                   21.08764              25.89801              25.32805
   AR                   54.86992               9.20770              22.33087
   AR                   61.02294              49.30336               9.51399
   AR                   91.32082              35.77899              39.70700
   AR                    1.22601              21.47991              34.06429
   AR                   23.47419              11.93001              11.54683
   AR                   22.27993               0.30106               2.53161
   AR                   51.56121              36.55126              35.18593
   AR                   99.31737              36.34272              46.98544
   AR                   29.59127              25.33287              16.13373
   AR                  100.37600               4.91603              49.52480
   AR                   87.49706               2.20226              36.92306
   AR                  100.29072              28.61989               9.46949
   AR                   96.66015              10.87664               5.66497
   AR                   59.07316               7.91678              46.55645
   AR                   74.49355               1.91937              47.18832
   AR                   70.24170              47.39454              45.51657
   AR                    1.29506              12.10942               2.18317
   AR                   74.96129               7.62441              26.45534
   AR                   20.98651              10.39473              17.04328
   AR                   95.52261              10.28351              32.63368
   AR                   92.62528              15.12622              43.92563
   AR                   51.95935              27.30820              28.52297
   AR                   64.12645              36.27081              13.39670
   AR                    1.66885              15.76134               1.78478
   AR                   87.16259              48.16788               1.14767
   AR                   82.88063              21.15951              20.47017
   AR                   62.21837              40.50741              43.61267
   AR                   24.72064               5.30013              19.30300
   AR                   66.23621              20.06940              43.51207
   AR                   83.86929              30.27248               5.40696
   AR                   89.56633              33.97640              26.48686
   AR                   61.35004              34.79626              35.26220
   AR                   25.79354              25.35220               1.62310
   AR                  101.29413              30.78368              34.97414
   AR                   11.27210              24.13791              33.84009
   AR                   88.75287              34.26946              18.81145
   AR                   71.40568               7.13114              19.11358
   AR                   33.02414               4.51987              22.24987
   AR                   93.74320              41.90672               5.65189
   AR                   69.06016              15.21843              48.06293
   AR                   13.43716              26.54701              31.15500
   AR                   94.19702              46.85108              37.17119
   AR                   53.20960              10.06650              10.22388
   AR                    4.18935              13.29215               4.60029
   AR                   68.21830              24.38761              24.15465
   AR                    3.89463              21.99938              10.81933
   AR                   15.27405              30.74501              20.71176
   AR                   98.02976              27.22636              36.11838
   AR                   11.22347              19.08283              13.22695
   AR                   56.29939              29.32438              19.93657
   AR                   26.11168              26.80536              14.94258
   AR                   24.67049              33.48585              31.45727
   AR                   84.02541               1.53870              29.37617
   AR                   91.24177              27.05071              10.71329
   AR                   93.80219              40.71202              13.11345
   AR                   67.62675              33.54295              35.38256
   AR                   58.56951              36.99705              37.57432
   AR                   11.16728               6.30434               5.81263
   AR                    0.89882               4.36143               3.65340
   AR                    3.68086              18.68178               8.18479
   AR                    3.21125              28.93906              24.03622
   AR                   21.52962              10.54595              26.05557
   AR                   74.75624              13.14588              44.61793
   AR                   24.92206              33.04609               3.58515
   AR                   57.46445              21.12212              10.71867
   AR                   11.52186              15.98269              24.64567
   AR                   64.14559              13.53153              33.37136
   AR                   93.39449              46.46634               0.20793
   AR                   82.04010              43.53589               4.60946
   AR                   87.22927              19.12094              43.02305
   AR                   17.56735              31.73828               4.11040
   AR                   65.95036              24.88444              43.71888
   AR                   28.95653               7.69953              31.21877
   AR                   85.22026              39.74818              40.45970
   AR                   85.40221              21.05140              10.79916
   AR                   63.67792              37.11800              43.44536
   AR                   79.46851              40.81624               5.19623
   AR                   87.29750              14.19744              45.53592
   AR                   15.69020              10.10267               7.27555
   AR                   27.96077              13.55033              20.83832
   AR                    3.21973               7.59591              14.93479
   AR                   90.74928              48.33302              22.26749
   AR                   71.80597              48.19113              12.20407
   AR                   71.37301              14.69502              38.89742
   AR                   88.87357              24.91537              26.88149
   AR                   71.56534               4.68585               7.59900
   AR                   16.89599              19.78701              25.07673
   AR                   89.23458              49.24154              37.55926
   AR                   98.90799              12.56654              10.57315
   AR                   81.29834              47.90983              21.93214
   AR                   81.16652               1.37086              47.98144
   AR                   96.22704              11.30611              39.96172
   AR                   58.60787              33.59906               8.34157
   AR                   87.33638              28.78083              37.62856
   AR                   59.29749              48.97206              13.07714
   AR                   60.99708              37.35439              14.37021
   AR                   68.05505              16.25043              34.06552
   AR                   52.62363              28.29824               5.60319
   AR                   55.14923              16.26466               4.83460
   AR                   99.51895              46.61176               6.02357
   AR                   83.84140               3.76738              48.82109
   AR                   57.59799              12.00455              37.26991
   AR                   73.15663               4.42993              15.09398
   AR                   85.16721               3.61782              43.39582
   AR                   99.61524              15.07180               7.43938
   AR                   84.94905              47.52960              34.83275
   AR                   71.66584               8.06878               1.56890
   AR                   90.96317              27.39095              14.07167
   AR                   23.11018               4.03614               2.34932
   AR                   19.58456              15.99368              31.43418
   AR                   73.05905               3.12433              34.34860
   AR                   63.26975              39.70809              15.66080
   AR                   99.46324              21.95746              15.82382
   AR                   56.42498               0.59674               8.29598
   AR                   80.73186              14.67533              32.25463
   AR                   58.33117              46.37598              18.82357
   AR                   94.31073               2.43517              31.69332
   AR                   67.20604               4.25331              27.44967
   AR                   30.07359              14.97662              27.86212
   AR                   55.01560              24.55310              10.32155
   AR                   85.17748              46.54019              30.14152
   AR                   79.91173              43.91668              21.18275
   AR                   80.45261              33.32250              47.04007
   AR                   52.03964              43.26017              11.25901
   AR                   71.17447              35.70333              49.52504
   AR                   96.73851               5.48200               0.19121
   AR                   61.57022              15.70497              28.44336
   AR                   53.32789              13.80532              41.29598
   AR                   80.17515               7.26746              49.17286
   AR                   23.29389              18.00881              12.40604
   AR                   94.29224              26.44378              46.09587
   AR                   54.14881               5.09127               4.21978
   AR                   56.54801               0.96242              30.12614
   AR                  100.96702              40.61802              29.70254
   AR                    7.47875              14.52142              16.43996
   AR                   98.40336               1.81180               7.34100
   AR                   90.29554              10.96326              34.43795
   AR                   12.45100              24.39565              10.65128
   AR                   61.78269              47.73121              48.08235
   AR                   31.29886              31.63086              27.24380
   AR                   59.44891              24.84503               9.44744
   AR                   96.01613              28.85973              10.01098
   AR                    3.87467              12.39066              23.37732
   AR                   56.52619              11.81964              41.68986
   AR                   54.62586              33.91498              38.32603
   AR                   86.25656               6.61733              29.95021
   AR                   64.27808              31.60042               7.42245
   AR                   11.15634              17.17476               3.35548
   AR                   65.60944              31.83203              38.07334
   AR                   86.01786              44.53359               3.01067
   AR                   59.04686               9.29301               1.33359
   AR                   66.14601               5.80071              30.59375
   AR                   91.19719              30.42393              47.76225
   AR                   11.20677               7.06622              23.74111
   AR                   93.46095              30.48285               8.91369
   AR                   19.68156              24.61580               4.73613
   AR                    8.76253               9.28536              18.32339
   AR                   11.77728               4.16859              25.63781 FRACTIONAL
   AR                   98.12334              28.25299               4.51074
   AR                  100.21504              15.03881              35.39621
   AR                   18.46898               9.46529              25.87393
   AR                    6.04698              29.43655              25.78785
   AR                   73.61861               6.62174              10.38952
   AR                   96.34915              39.53155               1.22861
   AR                    0.10408              27.40635              31.51440
   AR                   22.62891               7.46925               1.19873
   AR                   91.45540              38.23271              14.94961
   AR                   55.02850              29.97677               1.06683
   AR                   81.24927              20.64460              38.03646
   AR                   77.15981              11.41349               8.07592
   AR                   94.09861              20.03724              40.52977
   AR                   76.03576               6.24174              31.74887
   AR                   96.55067              39.96114               4.94535
   AR                   74.32386              36.20133              14.47700
   AR                   10.32566               6.01437              28.14180
   AR                   66.57377              19.67293              23.43263
   AR                   55.98781               4.60948              25.90734
   AR                   76.00650              46.71036              30.69566
   AR                   88.16672               9.48662              23.88523
   AR                   90.02022              16.21973              34.49284
   AR                   87.75036              32.63013              40.24808
   AR                   92.53213              27.84643              17.20051
   AR                   99.54432               2.73926               1.99719
   AR                   51.55847              49.65154              43.04144
   AR                   15.05419              17.26122               9.24170
   AR                   92.38247               1.71301              42.16157
   AR                   85.79244              25.91587              25.82916
   AR                   68.12792              35.93573              19.75963
   AR                   60.79897              12.33475              25.11963
   AR                   88.07026              48.84591               7.14277
   AR                   85.36868              35.68982              24.95590
   AR                   65.73572              29.77402              18.27238
   AR                   25.15850              23.37086               6.51918
   AR                   53.83309              29.75658              40.98641
   AR                   63.19102              36.82340              18.41277
   AR                   56.49411              39.76518              42.93815
   AR                    2.73874              33.13335               3.75811
   AR                   81.53618              36.52967              49.51415
   AR                   77.32809              16.46553              17.75762
   AR                   69.44992              20.12961              39.93114
   AR                   84.07656              11.78486              18.89472
   AR                   52.79466               4.27670              11.13663
   AR                   68.86655               2.60271              31.33979
   AR                   81.41615              40.31829              41.77515
   AR                   53.84044              32.47867              48.28446
   AR                   90.00826              24.32652              34.97449
   AR                   67.53848              35.64783              31.23757
   AR                   76.20602               0.88787              12.02036
   AR                   57.07140              10.78569              44.66335
   AR                   63.37996               6.49386              28.37172
   AR                   59.05497               4.87089              27.11644
   AR                   84.96087               6.92695              33.50886
   AR                   32.32034              17.35959               7.73797
   AR                   60.21931              16.86304              18.38485
   AR                    0.00941              21.62943              21.25073
   AR                    8.39176              15.32739              28.68050
   AR                   70.33901               4.76663              49.78683
   AR                   80.98456              29.10345               1.10965
   AR                   86.51323              29.01762              16.07344
   AR                   29.06920               1.17451              32.97143
   AR                   78.76944              36.97594              35.29426
   AR                   80.48571              14.94863              46.84387
   AR                   78.06617              33.38933              17.11922
   AR                  100.64589              23.39393              24.11913
   AR                   97.27404              40.25305              26.31553
   AR                   99.52448              15.58620              49.44239
   AR                   34.04966              25.17497              22.95987
   AR                   63.16461               3.04186              28.18625
   AR                   86.56677              11.29017              47.57143
   AR                   81.04588              35.86072              17.04998
   AR                   94.28135              31.88277              36.94772
   AR                   67.00879              35.80777              49.64670
   AR                   68.18962               4.59979              17.20421
   AR                   78.56547               8.96191              20.23723
   AR                   80.71536              14.51950               5.53406
   AR                   82.35626              23.06594              35.50983
   AR                   30.96212              11.56225              12.90504
   AR                   70.14533              11.11533              28.44710
   AR                   16.86311               2.43482              23.77028
   AR                   80.18283              20.64091              42.14771
   AR                   71.93123              37.40093              10.62446
   AR                   81.55117              39.79764               1.64724
   AR                   60.40380               9.81367              29.93245
   AR                   67.15479               7.91111              27.97756
   AR                   17.51069              12.46329              30.42888
   AR                   87.00896              17.82371              46.71716
   AR                   92.13505              41.78156              10.28071
   AR                    7.08002               6.26061               0.29297
   AR                   67.01968              35.03250              11.40605
   AR                   67.37950              42.22940              37.47582
   AR                   52.48305              12.44720              46.64705
   AR                   69.26203              43.59075              11.59365
   AR                   15.86199              10.95100              15.96767
   AR                    0.19288               0.80994               1.60393
   AR                    0.83329               4.77508              16.93463
   AR                   72.87282              46.02076               6.48241
   AR                   90.67777              46.33586              45.61107
   AR                   97.91018              23.39495               2.25172
   AR                   57.67013              45.95784              34.45478
   AR                   28.61917              29.90206              25.80026
   AR                   60.44468              21.50476              39.18797
   AR                   85.81700              13.87433              27.97749
   AR                   74.18585              11.93013               0.43955
   AR                   60.60010              14.49235              46.38285
   AR                   95.70756              24.52184              18.79438
   AR                   95.88978               3.15547              36.53953
   AR                  101.06299              45.64500              15.62806
   AR                   25.54608               9.04456              34.05683
   AR                   74.42628              43.88399              44.86500
   AR                   83.11045               5.66820              11.64064
   AR                   82.17105               1.88103              44.52077
   AR                   69.31675              49.62616              38.28291
   AR                   60.58003              25.74599              22.15366
   AR                   73.18088               0.23312               3.18999
   AR                   83.61626              16.66830              24.46796
   AR                   62.81985              17.57632               8.21766
   AR                   64.90135              40.85328               9.35763
   AR                   74.45278              46.81711               2.15456
   AR                   63.56633              11.91329              48.70048
   AR                   56.80495              15.00656               1.83008
   AR                   23.31854               6.79196               4.55571
   AR                   79.58971              17.86837              27.96368
   AR                   86.28003              25.69422              32.69591
   AR                   86.32282              14.71709              19.93807
   AR                   70.67423               1.68756              12.09061
   AR                   33.21167               8.01666              20.99456
   AR                   55.60368              47.94902              28.07234
   AR                   52.54407              48.58373              25.34750
   AR                   54.27082               8.59288              43.47304
   AR                   60.53744              24.88381              37.78463
   AR                   73.93889              26.12777              46.43808
   AR                   54.68428               0.03966              17.40422
   AR                   69.34503              14.23940               9.60981
   AR                   22.20513              28.43882              15.71889
   AR                   17.87411              30.90346              31.44625
   AR                   70.95815              37.67526              31.95688
   AR                   80.52984              13.07461              11.08945
   AR                   10.85698              18.92560              29.04908
   AR                   14.84429              17.25728              31.32561
   AR                  100.64777              14.74957              28.85771
   AR                   88.03719              37.53143              41.40305
   AR                   80.66522              24.34419              39.62781
   AR                   72.23871              38.52012              24.64839
   AR                   63.87631              16.87617              17.56363
   AR                   33.94350              19.46641              27.86870
   AR                   70.08623              36.80500              13.44056
   AR                   26.47835               5.94521               7.37157
   AR                   67.57963              11.15402              25.82731
   AR                   78.35266              18.90601              15.62632
   AR                    5.11793              25.04194               8.56126
   AR                   86.72579              35.18007               2.04142
   AR                   93.49903              34.96745              25.62601
   AR                   52.27830              26.85289              18.12932
   AR                   93.86054              12.17134               7.54239
   AR                   63.06952              40.68720              20.39803
   AR                    7.18242              28.84291               7.59759
   AR                   86.66597              36.47303              45.25743
   AR                   61.87167              41.27962              48.96652
   AR                   66.04165              46.36288              11.32554
   AR                   73.90236              12.29610              37.52434
   AR                   55.47143              34.15120               2.79053
   AR                    7.65360              10.32168               9.79669
   AR                  101.03408              35.69915              29.86612
   AR                   86.75776              34.61954              33.29362
   AR                  100.16358              25.53302              34.73545
   AR                   76.82859              38.91158              27.84226
   AR                   17.69217               3.54588              18.74456
   AR                   14.34022               1.71496              20.02872
   AR                   85.47738              26.29162               3.78231
   AR                   70.44625               1.93735              15.83340
   AR                   24.42366               2.18879               0.13931
   AR                   82.46398              49.34310               3.58235
   AR                   52.31078              42.39310              19.63446
   AR                   63.65975              37.15571              28.47013
   AR                   57.53769              35.43290               5.40460
   AR                   25.25669               4.99986              32.50754
   AR                   63.79326              44.55982              26.08710
   AR                   16.55563              14.15905              16.65400
   AR                   75.80539              33.69387               2.17178
   AR                   88.84761              29.26175               7.01284
   AR                   64.62667               8.59445              21.02220
   AR                   89.35097              25.31707              31.32955
   AR                   25.88979              10.29004               4.93893
   AR                   85.31448              12.59530              40.63932
   AR                   60.70723              38.59460              23.63554
   AR                    9.72601              23.08575              29.63366
   AR                   58.16338              36.55469              12.02920
   AR                   66.18929              39.81552              47.19370
   AR                  100.74720              40.67988              14.42245
   AR                   93.43064              17.19301              30.41353
   AR                   19.21755              18.75678              33.78107
   AR                   57.28867              32.72851              25.51215
   AR                   93.72164              31.63467              21.02297
   AR                   24.97636              28.71075              25.75690
   AR                   55.61713               8.84685              46.95480
   AR                   73.22699              43.72546              31.20386
   AR                   59.51248               0.18478              18.30916
   AR                   92.25652               5.53546              43.29101
   AR                   82.89403              24.52321              20.17630
   AR                   56.43700              39.58733              26.06811
   AR                   78.19810              10.06263              24.26615
   AR                   70.44230               2.36639               4.24820
   AR                    7.45264              13.19295               7.67590
   AR                  101.20715              34.14743               7.61499
   AR                   79.79559              28.22128               5.51259
   AR                   52.24060              45.43470              45.16922
   AR                   19.05011              10.91966              13.34852
