       421
            33.80787            51.66611
   AR                   16.78874              16.28315              32.03324
   AR                   17.09531              24.25496              23.85689
   AR                   18.46245              32.62373              12.33168
   AR                   25.31075               0.70170              11.92176
   AR                   21.80863               7.57529               7.69186
   AR                    7.26823              24.08167              33.27491
   AR                   20.05131              19.55922               9.32599
   AR                   21.93306              18.76660              20.72950
   AR                   30.80839              23.40662              16.67394
   AR                    7.64213               4.30489               1.93028
   AR                   16.32215               2.89427               7.48904
   AR                   12.22012              19.67137               6.29459
   AR                    7.75562              31.01115              30.47784
   AR                    4.81775               5.17729              24.30175
   AR                   20.39513               1.92324               4.99422
   AR                   10.52582              11.88017              20.57593
   AR                   33.35269              26.75726              17.38220
   AR                    0.63030               1.65526              26.66186
   AR                   10.96046              17.39215              33.38566
   AR                   14.17649              26.40062              20.77568
   AR                   22.58827              31.11829              23.51178
   AR                   14.11958              16.43167              29.60265
   AR                    1.73971              32.39181              23.45158
   AR                    2.76360              13.30038              15.38558
   AR                   21.62404              16.72156              16.44556
   AR                   20.56621              22.12678              14.17764
   AR                   11.28191              16.75848               5.41564
   AR                   17.64404               7.76724              22.23194
   AR                   13.15322              28.61120              28.00297
   AR                   22.58520              28.24320              25.98599
   AR                   26.47595              25.70479              33.31723
   AR                   15.79333              29.40544               7.00904
   AR                   19.00926              11.82092              18.13263
   AR                   16.23162               2.47066              25.64815
   AR                   32.92235              26.80468              25.00732
   AR                   27.14304              30.97384              12.14298
   AR                   25.48329              16.91659              27.27858
   AR                   19.53195               4.73751              10.20092
   AR                   32.20134              33.57223              23.03133
   AR                   14.97316               8.95759              14.94741
   AR                   33.60361               1.35571               0.96073
   AR                    1.03781              17.98724              16.40726
   AR                    6.72069              20.10688              33.55047
   AR                    8.10765               9.01659              26.93235
   AR                   33.60391              27.16118              31.30816
   AR                   19.80879              17.98003              25.42851
   AR                   12.03458               3.93011              18.21176
   AR                    1.09026              30.15297              18.59467
   AR                    3.28848              29.37278              22.33564
   AR                   31.99891              18.49483               9.58192
   AR                   18.20189              15.37929               5.35279
   AR                   17.15408               9.62680              12.18863
   AR                   17.80925              14.35283               9.19082
   AR                   31.35370              32.76380              15.69682
   AR                   30.29058              27.76146              16.43805
   AR                   19.79703              18.90563               2.83819
   AR                   33.17225               4.64237               8.69500
   AR                    8.57811              17.66812               2.18530
   AR                    3.60956              27.23145              19.17415
   AR                    9.68198              27.40406              30.46869
   AR                    7.77553              14.08087              16.19647
   AR                   23.27323               7.24206              11.17953
   AR                   28.90791              27.74568               3.92246
   AR                   12.36357              23.29344              31.32009
   AR                    9.61753              21.34905               1.88048
   AR                    5.21003              19.75547               5.12514
   AR                   22.20082               3.96086               1.52753
   AR                   24.52481              21.03659              20.03011
   AR                   21.53784               0.48968              15.30974
   AR                   13.11499              12.30532              23.77829
   AR                   12.20545              14.26141              10.69897
   AR                    3.69740               1.78727              24.74915
   AR                   16.76968               7.26049               0.50980
   AR                   13.34305               8.37900              28.82605
   AR                   30.89372               9.70731              21.51116
   AR                   32.98335              30.26086              22.42222
   AR                   11.96541              13.17286               1.67351
   AR                   31.02958              30.38913               1.41761
   AR                   22.13646              21.32716              24.67303
   AR                    0.44893              19.77576              19.34832
   AR                   26.60287               3.88635              12.46520
   AR                   31.91124              28.31324              10.54655
   AR                   31.46023              27.09298               2.10133
   AR                   18.30216               3.13816              13.66173
   AR                   11.23546              24.14949              13.15532
   AR                   20.82963              21.96435              17.61593
   AR                   12.06909              28.11995               6.40094
   AR                   24.28192               5.23853              25.35992
   AR                   29.07857               1.39979              11.53688
   AR                   33.24160              19.45219              12.37747
   AR                   15.91858              19.87068              30.43225
   AR                   20.50229               7.23296              28.99832
   AR                   23.67637              17.29153               0.85530
   AR                   81.69798              27.83217              15.83715
   AR                   96.91160              10.70525              24.53424
   AR                  100.85561              27.84679              41.70773
   AR                   99.35490               7.81125              35.93166
   AR                   81.16395              43.85414               9.85535
   AR                   94.55248              47.70803               3.92688
   AR                   90.85728              46.19539              32.72620
   AR                   61.25033              23.53434               7.57486
   AR                   51.96222              42.82746               2.38305
   AR                   77.47293              13.41690              48.76155
   AR                   82.71660               0.11924               9.10296
   AR                   62.36405              40.44620              10.43452
   AR                   72.22125              42.12386              14.72292
   AR                   65.97423              12.57864              37.00159
   AR                   58.29512              50.25342              14.96638
   AR                   64.13140              43.45114              12.53441
   AR                   84.74080              35.55517              23.57288
   AR                   70.25719              43.53784              17.80230
   AR                   62.65991              10.70351              10.96567
   AR                   88.75459              48.49910              10.80891
   AR                   73.54437              29.57221              21.13491
   AR                   70.67482              19.67876              16.02897
   AR                   72.44419              21.36134              51.58228
   AR                   51.22454              50.15657              38.99257
   AR                  101.51588              29.06734              28.58442
   AR                   93.83885              17.38319              21.32608
   AR                   56.53868              25.06843              28.31058
   AR                   67.37876              14.49499              42.22777
   AR                   78.07679              26.97049              38.29244
   AR                   75.12094               0.64310              42.89828
   AR                   65.23734              17.16471               6.86274
   AR                   63.28961              27.05710               3.26041
   AR                   77.79590              39.08897              32.31251
   AR                   52.39714              43.10591              50.29381
   AR                   93.38080              24.82598              27.28618
   AR                   94.42959               5.80606              10.96505
   AR                   91.64241              34.38871              18.36413
   AR                   81.27649              25.34294              46.15821
   AR                   96.50399              29.09706               8.94706
   AR                   80.76839              29.02848              26.93815
   AR                   75.55258               8.81195              14.64070
   AR                   90.32398               9.51374              21.67619
   AR                   80.13972              35.32885              16.36471
   AR                   78.84179              28.84788              18.46655
   AR                   62.98359               2.02012               9.04731
   AR                   63.08660               2.35004               4.29230
   AR                   98.83263              13.16203              14.80815
   AR                   51.26202              43.86372              40.98766
   AR                   92.72027              12.41848              46.21010
   AR                   83.68031              12.17191               4.46157
   AR                   81.88466              18.83065              29.22072
   AR                   56.91766               9.00980              43.44444
   AR                   64.41987              44.25822              21.82487
   AR                   56.10601              25.13440              11.43993
   AR                   80.79453               2.87483              38.34496
   AR                   64.53530              25.17429              18.66711
   AR                   68.48757              17.36983              10.17752
   AR                   85.80561              13.87293              45.27216
   AR                   99.81895              10.34852              44.89831
   AR                  100.40729              35.08454               3.92040
   AR                   85.09180              11.79740              36.76928
   AR                   98.30207              42.00476              39.53215
   AR                   95.01228              12.14561               7.73217
   AR                   67.81597              33.07675               8.93771
   AR                   74.66160              10.51926              47.91903
   AR                   91.25478              33.89259              28.51200
   AR                   66.11816              14.97258              14.00521
   AR                   65.23277               7.81504               5.43807
   AR                   77.48801              33.49984              12.94769
   AR                   79.25371              17.06209              19.96124
   AR                   97.70028              37.42311              28.47336
   AR                   91.21989              47.13117              36.73961
   AR                   80.73514              14.86223              30.69268
   AR                   69.26572              12.57743              44.76146
   AR                   60.20318               6.71093              36.49969
   AR                   63.72618              29.74095              18.29523
   AR                   68.53195              44.72529              34.21756
   AR                   72.90734              23.54891              11.08495
   AR                   85.99585               9.08787              39.35787
   AR                   83.65017              17.16614              10.00997
   AR                   68.96561              41.68963               1.95050
   AR                   81.23225              22.09236              42.32202
   AR                   99.36448              17.27675              36.63902
   AR                   81.69705              40.47280              11.18882
   AR                   79.52144              44.20728              43.24472
   AR                   74.84317              29.23168              28.69633
   AR                   80.45468              50.19868              50.87969
   AR                   53.29655              33.30049              20.64503
   AR                   86.73547              45.38175               0.17831
   AR                   87.93804               1.44245              15.01214
   AR                   85.52695              46.56163              11.52072
   AR                   68.41810              41.91645               5.54721
   AR                   93.89644              13.35294              34.22043
   AR                   85.33888              41.48881              42.10479
   AR                   59.40238              20.77302              34.68959
   AR                   90.81671              11.93840              32.14858
   AR                  100.82223              40.36918               7.85777
   AR                   69.69599              24.94436              18.98862
   AR                   53.72750               4.72743              22.37688
   AR                   84.69928              45.75437              35.97460
   AR                   62.33408              24.63845              15.72427
   AR                   81.74993              16.81306              23.01546
   AR                   69.76860              15.25127              28.97195
   AR                   80.80769              31.64320              35.69998
   AR                   61.35975              16.80162              24.03090
   AR                   90.93021              13.37217              16.78292
   AR                   53.77242              21.93528              51.15453
   AR                   79.21539               4.49772               9.51895
   AR                   66.80076               7.84947               2.47126
   AR                   91.96307              16.82589              32.74012
   AR                   84.42150              44.76601               6.05927
   AR                   93.75423               4.31072               2.97679
   AR                   58.77855              22.73105              10.65604
   AR                   89.28494              16.72435               1.94498
   AR                   61.47050              49.30657               8.84809
   AR                   90.09104              44.55491              24.58361
   AR                   63.79487              24.72350              27.94696
   AR                  102.04619               8.09085              45.17981
   AR                   60.52604               1.80164              31.40644
   AR                   71.98146              51.58022              33.90364
   AR                   81.92284              38.73433              49.12850
   AR                   94.99579              42.66379              50.77635
   AR                   58.40376              49.50119              11.24407
   AR                   59.17658              45.22413               8.51439
   AR                   93.94332              13.51935              50.74741
   AR                   58.37659              35.28180              16.09106
   AR                   77.90004               6.18579              47.13351
   AR                   57.99016              44.99056              28.88495
   AR                   67.43493              29.83464              37.98899
   AR                   97.79519               0.61917              12.68195
   AR                   97.30698              25.02711              31.03202
   AR                   84.67810              34.75498              40.73378
   AR                   63.57101              49.94594              28.16917
   AR                   93.84617              17.51317              15.19436
   AR                   66.17856              37.67681              30.49616
   AR                   66.08703              16.61290               2.17484
   AR                   98.04792              49.15649              27.97734
   AR                   73.36045              34.20737              32.85763
   AR                   62.60485              45.83257               9.98346
   AR                   67.83373              48.67286              40.14266
   AR                   88.20580              15.69808              31.15295
   AR                   69.01533              26.11271              14.14904
   AR                   54.50631              44.04514              46.82299
   AR                   52.17146              19.96981              23.72927
   AR                   67.90964              50.98270              17.34814
   AR                   79.58109              19.51932              25.92647
   AR                   60.17753               7.35538              27.19517
   AR                   70.19105              38.13917               9.30125
   AR                   84.01011               9.90872              21.15249
   AR                   96.10473              29.90989               4.03126
   AR                   73.08526              29.56080              17.78150
   AR                   87.07063              47.38566              39.37177
   AR                   99.22734              37.88434              50.46092
   AR                   87.80304              10.03481              51.28215
   AR                   51.18097              48.97499              28.79651
   AR                   73.88771              35.55144              50.19970
   AR                   81.52335              41.20211              34.61871
   AR                   73.02800              34.93147              18.38619
   AR                   84.40981              37.68165              47.01917
   AR                   79.76248               5.21864              22.58208
   AR                   69.61301              10.86772               7.27197
   AR                   52.71112              15.18699              49.60610
   AR                   83.26649               1.01569               3.22741
   AR                   90.29012              23.48902              47.74082
   AR                   64.58968              37.07194              40.70566
   AR                   51.47423              16.85551              46.29276
   AR                   98.20977              47.22411              31.96743
   AR                   73.43102              22.02685              38.56054
   AR                   86.07727              28.15593              21.02973
   AR                   59.04717              50.58991              29.48518
   AR                   60.16837              16.33544              46.95862
   AR                   61.64637               8.38715              45.46257
   AR                   57.36321               0.22813              34.38345
   AR                   62.93255              19.98214              19.19310
   AR                  101.33703              48.31384              13.20213
   AR                   67.31842               9.23449              37.22135
   AR                   91.12810               9.31536              26.38955
   AR                   89.30274              35.60569              23.83445
   AR                  100.49649              44.90371               9.18065
   AR                   65.91236              34.09427              39.19024
   AR                   58.73253               5.30963              21.90928
   AR                   64.98998              20.77823              30.15599
   AR                   76.30330              21.21551              45.64374
   AR                   62.99653              43.03949              33.05312
   AR                   79.01553              47.28042               9.08598
   AR                   89.37449              29.10290              11.64712
   AR                   93.97010              38.17027              34.92651
   AR                   51.67081               7.79825              34.56707
   AR                   51.88479              37.89353               4.17625
   AR                   96.66951              16.30792              28.69548
   AR                   62.05055              47.35904              35.03573
   AR                   96.66411              44.07866              29.86785
   AR                   75.47579              24.04829               8.35037
   AR                   56.22312               2.89967              31.42119
   AR                   56.37044              47.73651              18.64354
   AR                   63.05034              21.31743              36.16302
   AR                   56.80763              25.01158               7.47305
   AR                   53.00646              33.84690              32.51009
   AR                   62.97833              32.67848              12.84671
   AR                   98.56029              46.55655               6.73242
   AR                   86.85345               6.75201              47.09168
   AR                   61.64135              35.64027              45.55965
   AR                   90.68299               7.98559              38.35461
   AR                  101.08114               2.89155              19.24166
   AR                   72.05464              37.83134              14.58244
   AR                   86.47334              41.57439               5.72845
   AR                   73.44699              31.74352              35.83432
   AR                   60.57034               7.51284               4.41033
   AR                   83.94360              29.19423              46.98343
   AR                  101.19462               6.20585              48.90338
   AR                   74.44560              31.77814              23.45947
   AR                   84.30046              13.05356              51.09436
   AR                   74.71400              39.76517              50.04397
   AR                   68.46820              35.10259              19.32743
   AR                   85.55642              46.62561              26.26456
   AR                   91.98704               8.43051               1.07359
   AR                   99.60351              47.39134              40.48348
   AR                   97.28091              30.56627              22.73895
   AR                   65.54895              19.48089              12.15877
   AR                   79.95992              38.43226              28.02518
   AR                   59.09189              26.92417               3.39771
   AR                   59.31534              29.03702              42.73383
   AR                   59.89064              42.08869              20.31901
   AR                   57.12995              32.96224              18.62934
   AR                   98.89816               0.39464              21.60695
   AR                  100.36272              45.84652              20.78259
   AR                   60.85143              28.87476              11.78796
   AR                   75.16191               9.79498              33.37429
   AR                   56.45371              23.88729              21.57914
   AR                   95.32923               8.45611               6.14314
   AR                   77.09170              36.14963               5.16768
   AR                   90.16245              51.63231               4.39046
   AR                   98.31490               4.68966               0.44515
   AR                   69.93024              50.01817               9.03511
   AR                   68.49600              19.34241               7.24806
   AR                   93.85785              49.00693              33.81586
   AR                   69.49212              38.51231              20.62384
   AR                   87.51168               8.56862              35.59863
   AR                   87.72146               3.13661              50.65952
   AR                   54.30256              29.19233              17.15614
   AR                   90.06406              11.45791              37.07333
   AR                   89.65519              16.24169              47.94302
   AR                   51.90502               0.23864              31.88205
   AR                   52.66294              40.29006               9.54140
   AR                   99.90180              26.98535               7.41452
   AR                   75.15627              37.06276              32.03607
   AR                   82.58737              46.54216              43.22248
   AR                   84.61866              36.68394              32.58161
   AR                   55.41415              33.72897              12.38459
   AR                   63.95765              28.79086              48.06375
   AR                   70.54543              39.49230               5.34933
   AR                   82.55458              17.25557              35.10315
   AR                   93.63755              38.98920              40.76403
   AR                   51.71977              18.17008              28.81853
   AR                   55.95932               8.94021              21.05002
   AR                   85.32314              41.26635               0.75167
   AR                   59.20776               0.12813               6.76926
   AR                   64.47624               8.38958              38.73044
   AR                   83.21651               1.82619              25.47764
   AR                   64.66947              31.72581              27.37580
   AR                   78.48719              17.57319              41.13809
   AR                   72.11299              30.80973              13.19886
   AR                   99.61487              22.48731              43.35516
   AR                   80.11511              23.67370              14.98642
   AR                   94.06121              31.34202              19.39875
   AR                   74.13780              26.13185               5.45532
   AR                   57.50350               7.90894               5.88113
   AR                   80.70493              42.32768              25.49092
   AR                   77.99439               1.94292              14.70246
   AR                   94.46934              26.35449              34.36270
   AR                   66.20791              41.87703              18.10641
   AR                   92.94459              50.48007              47.41352
   AR                   98.02642              11.95919              35.00328
   AR                   61.90076              43.01821              16.55916
   AR                   73.58609              11.58878              39.96290
   AR                   70.10788              33.11432              23.00976
   AR                   88.37934              14.98109              36.63631
   AR                   51.84798              21.47709              36.42906
   AR                   56.80576              44.77643              20.60664
   AR                   61.20640               5.88612              11.18992
   AR                   78.54025              48.35238               4.58427
   AR                   57.03527              22.13130              25.31364
   AR                   72.89963              13.23806              36.77736
   AR                  101.84924              15.53785              30.16595
   AR                   76.43780              21.76803              40.79334
   AR                   85.22878              18.20723              30.99167
   AR                   98.79753              49.26216              15.11986
   AR                   87.66431              18.13502              13.38834
   AR                   52.62092               1.51433              24.07442
   AR                   71.25948              34.07731               8.94606
   AR                   69.85780              34.44999              30.01231
   AR                   71.21367              16.82517              43.00461
   AR                   69.45601               6.50079              39.48010
   AR                   83.98951               8.41159              35.91255
   AR                   85.49886              17.22744               2.81585
   AR                   57.03089              35.62853              32.98425
   AR                   72.76398               5.22337              19.09314
   AR                   64.30130              18.68949              24.87156
   AR                   94.73674              21.27794              48.81468
   AR                   72.80866              26.53916              25.55044
   AR                   67.07601              21.24877               4.85514
   AR                   95.50410              16.76403              35.16543
   AR                   57.95104              14.17144               5.45073
   AR                   78.54939              42.02057              48.62958
   AR                   58.67396              23.88697               1.15847
   AR                   64.10777               2.76646              31.79366
   AR                   56.99735              28.98746               6.23881
   AR                   84.72057              20.39527              50.26672
   AR                   93.24647              46.03527               8.21470
   AR                   54.42177              34.57564              40.96550
   AR                   84.85982              19.58492              40.03617
   AR                   53.06418              43.54043               8.34770
   AR                   91.72524               6.49327              14.26095
   AR                   55.79289               2.55648              13.60734
   AR                   67.77570              39.91455              42.17935
   AR                   54.86643              18.48948              30.50908
   AR                   91.50207              13.70098              42.77925
   AR                   75.85740               8.52847              39.92258
   AR                   51.89686              32.42175               3.43313
   AR                   57.87238              48.58219               5.82125
   AR                   62.81111              22.46269              12.56696
   AR                   92.84092              10.00448              35.00977
   AR                   95.59187              51.52905              26.96508
   AR                   97.81549              18.98803              31.90474
   AR                   60.24812              44.84592              49.24280
   AR                   74.73196              45.78828               6.97564
   AR                   58.48562              12.19384               9.23882
   AR                   70.22781               7.28741               5.14718 FRACTIONAL
