       266
            33.18135            70.29119
   AR                  112.81401              46.04214               6.39579
   AR                   87.55108              19.26719               5.16624
   AR                   81.37325              60.13727              70.23957
   AR                   51.13533              27.35091               9.80254
   AR                   92.56605              56.79122              13.39353
   AR                   53.02192              45.63602              47.06816
   AR                   96.14765              68.45904              28.25830
   AR                  100.98582              57.73546              46.55714
   AR                   68.44788              11.35544              15.44465
   AR                   62.93499              47.86005              16.76591
   AR                  103.42830              60.79148              27.31108
   AR                   80.18121              54.90866              33.47529
   AR                  102.12846               1.10513              33.63950
   AR                   60.67246              36.72488               9.25412
   AR                  112.35778              17.39335               5.04989
   AR                   57.06805              16.98530              59.07968
   AR                   80.73843              31.41795              52.68759
   AR                   71.50579              11.33445              46.24466
   AR                   84.94866              65.69057               9.44424
   AR                   85.57137              26.06738               6.20252
   AR                   61.70827              55.39238              15.75517
   AR                   53.32021              35.44066              16.53283
   AR                   71.27859              55.69448               4.96233
   AR                   95.87738               7.24070               8.93480
   AR                   80.75667              21.26436              16.11869
   AR                   86.21544               5.36248              61.68335
   AR                   69.01777               8.30681              20.93082
   AR                   57.58076              29.05902              67.71455
   AR                   92.99478              59.39153              65.31503
   AR                   84.94877              65.33179              13.59072
   AR                   83.66530              16.63868              66.77565
   AR                  107.30538              55.56949              49.52054
   AR                  112.78557              14.50643              42.28126
   AR                  113.07776              28.77463              24.52935
   AR                  108.74603              57.12027              27.75381
   AR                  119.53067              56.20674              21.01681
   AR                   50.81706              69.24518              47.43977
   AR                  102.22627              41.66530               7.79349
   AR                   83.25476              13.98995               7.28071
   AR                   56.32579              37.75177               2.86465
   AR                   81.20418              31.80493              67.32087
   AR                    8.92334              18.38545               0.85459
   AR                  102.34327              66.33946              39.03842
   AR                   69.94179              24.89316               4.56308
   AR                   74.67558              60.19687              10.00542
   AR                   89.18545              17.91069              11.93781
   AR                   91.22690              67.24855              56.62534
   AR                   58.58145               7.51384               8.75733
   AR                   85.23507              45.06313              34.94194
   AR                   93.78264              36.68046              29.96541
   AR                   58.75936              27.41414              32.17481
   AR                   95.73497              21.67054              43.48922
   AR                   73.32734              25.24673               7.91348
   AR                   71.73325              18.66254              19.69565
   AR                   88.36421               4.41677              54.86999
   AR                   58.96811              46.31143              28.41896
   AR                   60.02389              32.47759              18.77699
   AR                   70.36292              45.23778              28.84823
   AR                   99.57797               7.50681              42.62169
   AR                   93.17583               8.54827              12.71585
   AR                   70.58093              41.55624               4.25016
   AR                   64.54145              25.28153              20.44152
   AR                  108.63676              35.22448              14.76644
   AR                   71.56324              32.07787              23.33366
   AR                   59.39016              28.67454              59.46543
   AR                  106.47038              64.82698              26.32489
   AR                   75.68839              43.33880              36.09314
   AR                   50.09874              58.73753              67.99985
   AR                   79.15095              18.04420              66.89058
   AR                  119.95120              20.45006              45.71962
   AR                   53.72221              49.67673               5.79572
   AR                  109.38032              60.30876               5.59791
   AR                   75.04379              52.40211              65.40899
   AR                   93.51928              21.43442              63.88336
   AR                   60.80487              62.53053              30.91761
   AR                   93.19870              33.68659              44.43868
   AR                   99.95574              21.85320              53.70071
   AR                   57.84490              57.27907              51.35266
   AR                   63.69893              41.91757               2.92881
   AR                   86.70725               3.80082              27.82288
   AR                   73.57511              63.30444              12.99993
   AR                   81.26880              22.73381              67.78452
   AR                   95.54134              68.47721              11.87552
   AR                   63.95597              33.73826              24.06230
   AR                   15.98844              29.63865              22.47888
   AR                  110.60238              46.92608              56.89181
   AR                   87.45589              36.45491              30.89052
   AR                  103.29089              21.21830              63.57361
   AR                  111.35066              70.11411              55.13773
   AR                   73.16167               4.59058              42.11989
   AR                  108.85386              67.13214              44.87317
   AR                   31.00754               2.70252              32.58317
   AR                   65.76879               2.96955              15.45862
   AR                   78.01907              16.18627              40.13119
   AR                   65.11967              21.16973              63.26031
   AR                   81.21211              31.39435              22.70826
   AR                  114.43512              42.12887              33.09028
   AR                   70.44720              57.83127              51.05623
   AR                   89.20006              39.47199              43.05582
   AR                  113.72867              56.84127              42.67188
   AR                  114.31448              49.58967              68.56500
   AR                   91.96294              43.73644              46.83298
   AR                    3.42101               5.89756              16.91774
   AR                  114.77766              44.97207              16.08419
   AR                   90.32043              39.06478              30.01262
   AR                  118.07736               9.78126              30.09705
   AR                   52.03380              19.70678              53.01855
   AR                   74.19263               3.34381              59.65035
   AR                   93.57613              52.99048               1.59766
   AR                   22.57587               6.97755               6.60760
   AR                   54.50890              61.97299              33.07721
   AR                   59.38016              55.69042               7.13316
   AR                   70.06450              27.04441              21.93451
   AR                   90.57472              48.68287              24.78911
   AR                  110.11794              23.13903              30.12574
   AR                   14.45230              23.93075              30.12828
   AR                   19.15947              16.20900              17.77513
   AR                   77.72420              17.70756              60.47965
   AR                  101.18223              33.18284              18.27132
   AR                   83.60736              31.92637               0.19969
   AR                   89.04630              59.53301              58.57320
   AR                    7.00346              25.72912               6.02800
   AR                   78.97007               6.92911              64.63939
   AR                   68.66013              13.51540              26.13173
   AR                   93.47980              54.57437               8.50904
   AR                   62.64300               6.41098              23.38368
   AR                   87.64420              44.87080              57.53029
   AR                   73.25174              33.82658              27.06946
   AR                   85.02472              59.85845              48.06123 FRACTIONAL
   AR                   77.94324              54.28215              66.71414
   AR                   95.95349              31.51359              50.00474
   AR                   13.64749              16.50455              20.53103
   AR                   74.51770              61.09873              15.30887
   AR                   82.20867              16.62458              26.59831
   AR                   90.84789              24.71285              28.70571
   AR                   54.44405              66.77062              37.82229
   AR                  102.67936              67.18387               7.38215
   AR                   79.36314              48.74692              59.12533
   AR                   98.19867              47.90357              34.84224
   AR                   59.76738              18.01893              39.04974
   AR                   74.49059              35.60229              34.05763
   AR                  119.41940              63.83438              21.99302
   AR                   65.47941               8.56087              42.88515
   AR                   53.37717               5.58890              11.17435
   AR                   78.88632              23.54828              50.65930
   AR                  111.82074              69.21213               7.76977
   AR                   56.75551              15.64673              69.09060
   AR                  102.61966              65.05547              10.77080
   AR                  110.20832              29.29717              10.08541
   AR                   53.57875              68.38162               6.84341
   AR                  109.68902              54.89464               0.27901
   AR                  116.12965              67.29876               1.83520
   AR                   81.68119               0.33359              39.80447
   AR                   72.98282              47.48144              30.62673
   AR                   75.84899              23.50902               0.72541
   AR                   89.16342               0.66673              31.29787
   AR                   63.11108              46.08393              47.63003
   AR                   20.62844              32.09287               1.13788
   AR                   79.57716              20.59971               5.06044
   AR                   92.36886              13.97045              35.92122
   AR                   74.77945              17.97196               4.43513
   AR                    9.58049               7.33144              27.63554
   AR                   72.39652               7.46294               6.48074
   AR                   88.28138              43.61227              14.49163
   AR                   58.42536              56.29824              39.67763
   AR                   56.71771              19.16337              10.28444
   AR                  105.88320              41.49771               9.55731
   AR                   53.69436              48.43927               1.12665
   AR                   88.25905              24.99369              55.92669
   AR                  107.03179              38.54136              65.72605
   AR                  117.00973              56.20108              10.51587
   AR                  118.57395              14.49160              32.65097
   AR                   93.40753              24.23862              41.40735
   AR                   78.56797              30.13068              31.78043
   AR                   92.72702              52.17912              67.71763
   AR                   58.15004              60.70481              61.63984
   AR                   66.89214              42.21430              70.23129
   AR                   74.38550               2.32193              24.80973
   AR                  115.50592              48.47806              49.40711
   AR                  114.22761              34.93674              17.16985
   AR                   75.24153              32.13654              53.44316
   AR                   57.87474              67.78032               1.44560
   AR                   84.69576              53.17927              16.79979
   AR                  100.91072               5.45055              65.04126
   AR                  102.34433              30.20448              31.78738
   AR                  107.23087              56.38476              10.55836
   AR                   77.05611              39.45485              37.34640
   AR                   76.23920              38.45048               4.09896
   AR                   56.35338              29.42128              24.21567
   AR                  104.97368              65.06703              34.26934
   AR                  108.09555              53.34228              34.84268
   AR                   90.24305              11.32213              62.37401
   AR                  110.56306              56.49849               5.27531
   AR                  101.71571              35.76925               0.24885
   AR                   58.14936              38.96583              58.73025
   AR                  104.25758              21.40387               5.57751
   AR                   50.51553              48.42791              46.75998
   AR                   53.77298               3.63838              64.10306
   AR                  116.97238              37.89080              64.71337
   AR                  101.97219              30.61450              60.29480
   AR                   67.69629               0.28100              42.30684
   AR                   91.86120              46.47635              51.59861
   AR                   90.74100               8.42848              46.27575
   AR                  105.26305              27.87207              42.39520
   AR                   62.77487              48.22075              36.49700
   AR                   95.11365              32.32359               2.97662
   AR                   26.73286              22.12491              27.08002
   AR                   86.40413              43.44620              37.46547
   AR                   81.39187              30.67204              43.26652
   AR                   61.21161              28.45871              46.99365
   AR                  109.85342               4.60346              14.34518
   AR                  113.63043              31.25820              35.63592
   AR                   59.99905              14.78446               6.99039
   AR                  117.26721              54.98234              62.42979
   AR                   85.19414              53.21380              45.78586
   AR                   58.59518              47.83489              66.68671
   AR                   65.13943              50.81728              34.44877
   AR                   74.59698              22.41472              66.28738
   AR                   87.12624              59.14716              43.49955
   AR                  115.58858              14.13943              60.71721
   AR                   97.52209              52.28177              52.83089
   AR                   52.95745              51.20952              66.99501
   AR                   64.59182               1.31055              22.47397
   AR                   98.17276              14.77930              42.52879
   AR                   80.00694              51.25335              54.08209
   AR                   99.40372              30.03244              28.63624
   AR                   99.58697               7.64374               9.70624
   AR                   54.03463              16.81093              54.79610
   AR                   62.60298              36.61755              48.88312
   AR                   14.54061              12.77781              21.10363
   AR                   70.05151               1.52661              58.64624
   AR                  102.39100              37.67710              55.09725
   AR                   50.97368              57.89596              25.20079
   AR                   53.04118              33.15584              44.57566
   AR                   80.49831              25.92875               5.87034
   AR                  117.16972              34.77322              58.58154
   AR                   78.40712              63.77306              44.96675
   AR                   62.23682              64.49504              69.30005
   AR                   83.13497              15.77865               4.22707
   AR                   93.66538              64.16673              65.04957
   AR                    5.51766               2.12578               6.60713
   AR                   16.17402              16.80176              15.91846
   AR                  100.52132              38.64901              37.48852
   AR                   87.07891              46.51502              22.83643
   AR                   59.85859              45.39560              48.22450
   AR                   28.45315              25.02808               8.83782
   AR                  103.06889              34.91916              42.68664
   AR                   89.56627              45.50780              67.57566
   AR                   18.19129               6.45652              29.21830
   AR                   18.32709              19.87748              29.39465
   AR                   51.81842              65.47763               6.41711
   AR                   72.72032              30.53992              49.23666
   AR                  117.95853              35.19260              46.14344
   AR                   30.01795              13.61305              11.53462
   AR                  113.14844              32.24415              58.99613
   AR                   55.27708              23.52458              37.15415
   AR                   71.33352              44.63312               9.88031
   AR                   83.79053              51.91879              36.66342
   AR                   85.69122              54.56629              50.40492
   AR                   79.90025              15.77860              50.31873
   AR                   99.52759              19.42147              45.06470
   AR                  107.31435              11.56010              28.56862
   AR                  100.18562              37.03020              43.18712
   AR                   92.62614              47.81034              11.25077
   AR                   61.54534              67.90749              25.86720
   AR                   71.04879              15.46509              36.35661
