       321
            33.66157            56.71215
   AR                  103.79969              22.43718              31.06134
   AR                   65.95015              54.13936              46.07856
   AR                   99.42182              44.90792              28.15514
   AR                   89.56516              36.28256              45.19680
   AR                   77.76856              25.26609              15.33363
   AR                   71.11826              47.19817              19.01155
   AR                   18.56049              28.36068              14.89508
   AR                   54.82896              41.67468              27.25683
   AR                   10.15291              12.13872              31.48365
   AR                  102.89557              10.30763              51.30186
   AR                   26.55345              15.87717              24.18324
   AR                   88.78733               7.51478              34.68790
   AR                   93.78713              44.49868              28.19177
   AR                   57.35343              25.66400               9.52759
   AR                   78.93319              34.92207              23.95530
   AR                   83.10624              53.24320              56.24673
   AR                   19.60533              14.60471              30.12909
   AR                   12.66694              25.01576              22.61373
   AR                   93.62266              22.93360              47.76504
   AR                   91.15102               3.31477              46.50567
   AR                   51.41181              15.57963              41.20336
   AR                   63.63535              53.42989              37.98165
   AR                   50.50412              11.24352              20.49868
   AR                   58.58984              24.83818              49.36847
   AR                   78.36712              44.83524              38.90910
   AR                   80.58587               2.04689              49.77916
   AR                    8.21971              18.30092              15.19291
   AR                   63.56805              37.41851               2.12609
   AR                   96.19841              39.68131              47.52854
   AR                   76.78724              33.59358              40.04654
   AR                  100.54791              51.44892              14.94365
   AR                    9.46174              32.61090              10.77325
   AR                   51.20329              23.68719              44.84642
   AR                   86.21305               9.14684              21.42894
   AR                   93.72196              27.74255               5.34853
   AR                  101.08805              35.68432              12.88474
   AR                   76.33445              54.38813              30.57197
   AR                  104.77939              21.19728              25.39982
   AR                   11.78428              20.22800              17.23876
   AR                   57.43843              53.81774              31.00860
   AR                   59.14760              53.24944               9.57219
   AR                   87.65788               7.47049              49.37596
   AR                   57.69422              11.93980              51.71990
   AR                    6.41848              31.95870               8.67433
   AR                   76.94198              11.59410              46.50125
   AR                   93.67585              35.61175              42.00791
   AR                  104.05615              41.36898              38.00936
   AR                   88.61463              30.28707               4.52835
   AR                   64.18564              19.85362              35.38489
   AR                   78.19356               8.43694              20.25057
   AR                  104.10872               4.68530              27.29007
   AR                  102.36319              50.55249              12.56987
   AR                   12.45907              27.58366              26.45243
   AR                  103.77954               7.97162              14.92667
   AR                   52.71304              10.32142              45.88564
   AR                   69.22103               7.59946              12.51917
   AR                   95.19532              18.21285              54.93243
   AR                   84.61711              48.05961               6.32780
   AR                   82.00400              27.26846              11.61150
   AR                   75.88521              47.48357              22.50374
   AR                   62.96838              12.45730              52.81135
   AR                   59.52038              27.28408               5.65674
   AR                   78.80352              22.45213              23.35285
   AR                   65.19125              48.43231              21.43016
   AR                   72.87332              35.46257              10.18793
   AR                   56.71637               6.36654              56.55669
   AR                  106.03439              42.00520               2.98999
   AR                   97.96816              35.90995              50.30961
   AR                  101.11058               7.90956              40.92268
   AR                  100.43717              19.60509              23.82275
   AR                   87.01722              56.63700              16.64633
   AR                   55.52040              37.15098              13.81052
   AR                   54.11362              41.91945              24.04914
   AR                   27.07483              19.14418              13.40364
   AR                  100.65726              19.51164              33.33053
   AR                   95.31617              22.10848              56.19168
   AR                   82.40492              32.29449               6.67314
   AR                   64.63908              40.31973              12.22187
   AR                    5.48654              28.93142              10.45711
   AR                   79.63432              23.97439              48.95040
   AR                   53.93712               6.71089              26.68324 FRACTIONAL
   AR                   73.61671              42.28538               4.23289
   AR                   95.53219              50.05701               8.45620
   AR                  103.11026              32.09957              43.34749
   AR                   76.09066              17.96401               3.57661
   AR                   98.65349              44.36347              22.67256
   AR                   51.79368              20.93626              41.89785
   AR                   63.14608              13.21412              30.16076
   AR                   77.05495              29.53756              13.59760
   AR                   25.85771               3.83774              21.09255
   AR                   69.30979              37.33268              19.77331
   AR                   55.26929              46.16460              44.96880
   AR                   89.21820              25.05755              11.69971
   AR                   51.94205               5.01941              50.60257
   AR                   90.85599               5.75111               6.32721
   AR                   98.70593              45.33557               0.15089
   AR                   62.23531              33.36306              41.80408
   AR                   93.61570              42.13731              15.63929
   AR                   80.58385              11.98846               6.83831
   AR                   96.65168              49.60949              46.66306
   AR                   89.78647              55.50142              39.29531
   AR                  104.90977              39.60778              34.57916
   AR                  104.38251              40.26875              17.60566
   AR                   76.20261              32.58189              10.48628
   AR                   62.76943              30.99466              47.08519
   AR                   62.27540              18.76025              50.63684
   AR                   93.41334              45.44068              36.20058
   AR                    1.72915              21.23823              31.36277
   AR                   91.96054              17.62541              33.70063
   AR                   65.35159              39.46393               7.49967
   AR                   90.79251              55.98110              43.94662
   AR                   79.39202              53.01630              30.66754
   AR                   32.63667              12.19924               3.90247
   AR                   98.28211              41.46096              14.48458
   AR                   80.32547              43.53410              55.65093
   AR                   74.27092              51.60076              35.89323
   AR                   23.13628              10.94500               6.88342
   AR                   72.15728              15.71619              38.52685
   AR                   69.35508              35.06325               4.99337
   AR                   85.20055               7.49557              25.27840
   AR                   98.35921               9.53141              56.10165
   AR                   24.68165              27.79430              19.47971
   AR                   28.06107              10.08922               2.03564
   AR                  103.85036               9.45194              39.75439
   AR                   71.71894              36.17090              22.05951
   AR                   62.86164              41.06455              49.84692
   AR                   95.67392              56.39157              23.41778
   AR                   68.55427              53.99149              18.35205
   AR                    4.06040               0.53855               8.37476
   AR                  105.41494              30.13860               3.45666
   AR                   60.97632              53.86216               6.24059
   AR                   89.97167              41.53863              33.85025
   AR                   59.12097              11.78255               5.60168
   AR                   73.27935              15.52678              46.39188
   AR                   11.73694              13.57229              11.75204
   AR                   51.10929              38.77390              31.92554
   AR                   63.26362              46.46925               4.62555
   AR                   83.10108              49.86333              22.02210
   AR                  103.33832              27.35794              53.88756
   AR                   32.69614              20.74852               0.89934
   AR                  103.58112              51.41761              34.04310
   AR                   74.01712              44.21672              26.94692
   AR                   10.46139               1.49202              19.61379
   AR                  100.42395              43.93728              42.48991
   AR                   84.43661              29.95677               9.45385
   AR                   74.45676              10.65456              21.34070
   AR                   81.16384              47.58665              49.02008
   AR                    2.56184              30.66477               9.15266
   AR                   86.72027              15.53523              40.36848
   AR                   31.37099              21.89537              26.33982
   AR                   60.03278              12.98164              29.07539
   AR                   71.71219              12.87145              43.69351
   AR                   96.02151              22.33149              24.08051
   AR                   82.00149               9.15139              51.33078
   AR                   87.65044               6.78411              54.74467
   AR                   52.35850               3.03318              37.79453
   AR                   66.78254              15.80150              35.13231
   AR                   87.94276              15.90011              24.23618
   AR                  105.36666              26.44015              39.13943
   AR                   83.55325              51.57716              34.88572
   AR                   70.43302               1.61454              41.90937
   AR                   63.99880              49.02509              42.49230
   AR                   89.23634              50.22057               3.04980
   AR                   54.08233               9.88847              55.49639
   AR                   17.01020              10.50753              13.09869
   AR                   83.96043              31.37819               4.00520
   AR                   68.60840              34.11315              30.35955
   AR                  106.76854              42.70463              18.50445
   AR                   88.90801              43.08585              29.31163
   AR                  104.51851              46.02829              54.98463
   AR                   85.80372               5.76095              14.35616
   AR                   59.78959              53.87073              34.15843
   AR                   68.22336              17.48672              38.59240
   AR                   54.88900               9.93563              24.97167
   AR                   56.78853              32.45053              50.88116
   AR                   73.59820               8.43649              36.11274
   AR                   65.26705              33.65556              13.97133
   AR                   15.98668              28.33162              19.16538
   AR                   75.51008              19.15874              50.53986
   AR                  104.15380              33.32392              36.14980
   AR                   62.74548              15.08842              13.27207
   AR                   55.10003              13.53972               6.24335
   AR                   82.38566              30.10200              39.69575
   AR                   30.21169              33.01903              15.18238
   AR                   93.88166               5.57601              49.01805
   AR                   75.53056              25.18025              25.61014
   AR                   83.97886              15.92517              43.52374
   AR                   71.41927              39.12783              29.67338
   AR                   86.25807              34.18363              20.95370
   AR                   68.84541              15.02797              55.85974
   AR                   66.05429              47.42449              47.23384
   AR                   80.92918              44.85441              13.86829
   AR                  101.15466              34.81537              53.68949
   AR                   62.87613              39.49916              20.17126
   AR                   21.34931              28.82647              18.42194
   AR                   17.59241               1.02126              13.64247
   AR                   57.09151              23.48835              35.42852
   AR                   97.47710              48.97741              26.79086
   AR                   17.85401              30.61924              21.57064
   AR                   57.66052               7.40003              53.28046
   AR                   99.42628               0.12049               1.59025
   AR                   78.79713              48.15182              51.62440
   AR                   58.44519              31.46230              39.74935
   AR                   96.90689              41.93734              29.76802
   AR                   53.65144              19.63318              35.81118
   AR                   84.63063              42.23696               4.42634
   AR                   77.98528              33.55339               2.30717
   AR                   93.08543              47.48452               9.88983
   AR                   94.88675              16.57447              28.16207
   AR                   61.18851               8.72167              44.87179
   AR                   87.47303              26.25362              19.50110
   AR                   56.46555               8.43754               6.27679
   AR                   80.01533               3.07833               7.24998
   AR                   85.23305              45.62227              13.14103
   AR                  103.27958              20.58699              49.62610
   AR                   64.86415              51.54882              12.68449
   AR                   56.66408               5.40915              18.04081
   AR                    3.17581              29.45551              30.07801
   AR                   69.45943              43.98865               6.78461
   AR                   59.64159              49.71557              11.29651
   AR                   68.99671              38.74898               5.81040
   AR                   26.12942              24.84539              29.07402
   AR                   76.97506              53.43948               9.87283
   AR                   84.60241              23.86935              11.32468
   AR                   63.51434              54.59750              17.59497
   AR                   81.61418              16.83009              50.89819
   AR                  106.15133              38.56851              49.36091
   AR                   23.83440              30.42352               9.28457
   AR                   27.02763              25.50459              18.26463
   AR                   64.35963              28.35907               2.64060
   AR                   89.49917              20.49448              12.13363
   AR                  106.07087              52.40671              52.52642
   AR                   55.94885              38.69757              18.85751
   AR                   25.27024              14.38723              16.13257
   AR                   64.33963              29.80666              23.67296
   AR                   87.65130              11.71490               2.04119
   AR                   72.57313              56.51160              25.66761
   AR                   21.77885              17.49948              28.84891
   AR                   93.67972              43.12689              48.73873
   AR                   56.27495              11.06751              47.30623
   AR                   84.74993              16.00335               8.51352
   AR                  106.23683              21.19442              10.88278
   AR                   73.65151              23.87732              47.41424
   AR                   85.62599              19.44908               7.95350
   AR                   72.71324              33.80999              25.60416
   AR                  101.45450              24.04052              24.76110
   AR                  101.22299              14.13059              32.82773
   AR                   76.58592               6.93523              29.66713
   AR                   72.08162              22.38473              16.21383
   AR                   90.54542              51.15680              12.87865
   AR                   80.35069              25.77834              37.55180
   AR                   91.11784              34.82176              40.20649
   AR                   97.85309              12.24157              27.60214
   AR                   67.18711              14.22346              17.88506
   AR                   52.26139               6.54237              22.29982
   AR                   55.72819              45.16822              28.73020
   AR                   26.54355              31.91057              15.69568
   AR                   65.98086              15.36187              14.90071
   AR                   75.66043              21.56183              16.61774
   AR                   92.69384              30.91744              19.35033
   AR                   94.68541              40.66423               9.31109
   AR                   87.91820              34.18943              39.14680
   AR                   91.47087              48.10699              14.95648
   AR                    4.00745              30.29956               4.61888
   AR                   25.28603              25.38328               6.89179
   AR                   86.83687              11.70017              32.94519
   AR                   79.82580              37.12234              34.88428
   AR                   59.73406              51.77357              15.36770
   AR                  101.94807              46.97366               5.82184
   AR                   77.18527              37.86621              30.22774
   AR                   62.91823               6.18206              42.19158
   AR                   69.32709               1.54804              35.06047
   AR                    5.28123               0.50186              31.55565
   AR                  100.50767              33.31296              46.99573
   AR                   64.13935              45.01615              23.91367
   AR                   97.11843              47.90404              49.77267
   AR                   63.83195              23.99315              26.04414
   AR                  100.39774              20.23850               7.99503
   AR                   78.73037              16.25037              23.20166
   AR                   98.04352              33.29740              34.85027
   AR                   28.12109              29.07149              18.11607
   AR                   64.15354              21.40271              18.97151
   AR                   84.13321              30.54755              47.44557
   AR                   25.33697               0.76049              22.10999
   AR                   99.57476              55.97924              29.93004
   AR                    9.96124               1.05268              27.69844
   AR                   57.76033              44.41033              51.51286
   AR                   62.98184              45.81263              29.76406
   AR                    7.74463              32.92609              23.25650
   AR                   62.24758              16.86293              17.35641
   AR                   58.79777              16.84491              32.53357
   AR                   59.43755              38.47922              27.28799
   AR                   51.40365              33.65738              10.93239
   AR                   58.51408              51.30007               3.88534
   AR                   84.95496               0.95877              32.92617
   AR                   85.02131              39.33330              22.31889
   AR                   82.47027              35.78405              28.01264
   AR                   21.20263              32.13522               3.96836
   AR                   61.33657              31.06589              51.19637
   AR                  100.02948              35.21902              21.97083
   AR                   64.10848              43.38717               2.94178
   AR                  106.27451              35.99684              20.79121
   AR                   90.72603              40.46678              17.58914
   AR                  101.32271              47.55063              41.99230
   AR                   76.41005               3.57800              15.99326
   AR                   51.19408              34.96995              16.46264
   AR                  104.86558              46.60274              10.70332
   AR                    2.33979              31.95811               1.62982
   AR                    2.90625               8.29757              27.01866
   AR                   65.44531              17.58533              29.74289
   AR                   81.42498              23.91629              55.96862
   AR                   68.69445              36.66745              34.31912
   AR                   93.72713              13.52176              35.53782
   AR                   20.25565               5.77403              31.49080
   AR                   66.79748              50.43130              45.80039
   AR                   72.56969              27.64584               2.70251
   AR                  105.45071               3.88860               2.56333
   AR                  104.51042              43.31339              48.68519
   AR                   13.13563              28.03427              29.64520
   AR                   55.29546              38.53679              25.22022
   AR                   79.67741              48.11894               0.50185
