       391
            33.31199            52.32474
   AR                   10.25592              21.04122               8.53157
   AR                   93.27999              28.02437              29.05530
   AR                   74.31138              40.08416              41.30005
   AR                   58.12473              40.81227              23.07962
   AR                   92.56364              36.13635               4.10956
   AR                   57.72823              21.26350              49.42544
   AR                   93.22593              26.20977              25.80259
   AR                   65.30855              24.77465               6.03940
   AR                   61.11606              38.42473              41.37999
   AR                   53.96995              40.95100              13.65503
   AR                   54.74839              10.86184              17.12265
   AR                   59.10059              36.51140               0.89267
   AR                   72.96504               0.06832               1.33017
   AR                   78.45399               3.38741              33.00521
   AR                  101.02448              34.10975              39.38628
   AR                   79.11927              29.35055              16.88904
   AR                   95.74624              31.92323              25.66523
   AR                   63.33678              15.50324              32.85234
   AR                   94.86096              11.66756              24.25057
   AR                   87.68206              32.18316               7.47431
   AR                   84.79844               3.40352               4.48238
   AR                   53.58029              24.29979               5.65969
   AR                   58.90093              36.11224              34.67781
   AR                   88.60835              31.58841              24.86669
   AR                   93.49474              29.62507               4.88991
   AR                   71.58413              31.88894              32.98544
   AR                   92.60380              27.60084              33.10570
   AR                   75.58424              34.04122               9.58847
   AR                   90.23175              29.89746              50.98453
   AR                   96.00435              27.34233               3.11874
   AR                   63.64118               6.43697               4.49992
   AR                   26.26319               9.57029              26.36680
   AR                   81.42405              20.72686              16.36707
   AR                   91.77866               3.20730              10.72054
   AR                   97.72029              31.29795              47.87046
   AR                    6.74286               4.99397              26.77222
   AR                   73.73607              36.63157              20.09894
   AR                   75.12448               2.42587              14.29288
   AR                   12.08793              30.04619              23.36474
   AR                   65.44814              49.57828              12.69270
   AR                   99.09266              12.89250              38.70971
   AR                   89.28945              34.26154               0.64901
   AR                   60.52271              42.34923              10.51030
   AR                   16.10783              11.70037              15.01742
   AR                   83.47067              34.71223              19.46317
   AR                   76.37831               7.69686               7.52900
   AR                   99.92346              46.80367              35.10712
   AR                   64.89010              20.09423              14.64969
   AR                   50.99361              17.94674              46.19770
   AR                   86.06681               9.10675              39.09429
   AR                   80.07992               7.25875               7.74847
   AR                   83.64567               1.79830              22.93251
   AR                   30.78225               4.18545              24.16509
   AR                   92.19641              43.56217              38.13716
   AR                   15.29500              25.28228              28.60087
   AR                   58.36272               8.94915              48.61494
   AR                   76.43368              16.18429               9.61692
   AR                   89.01630              46.03816              33.22632
   AR                   77.65577              44.12839              33.23663
   AR                   69.77391              40.27049              28.58503
   AR                   96.59705              35.61182              20.57409
   AR                   50.20754              14.51827              25.02832
   AR                   91.50784              52.24242              17.81086
   AR                   53.90346              13.66815              46.78530
   AR                   65.26995              18.89250              29.71930
   AR                    9.30580              30.20502              18.18567
   AR                   95.31845              32.16527              21.90962
   AR                   75.65234               8.68665              51.77259
   AR                   16.03775               8.79673              25.32437
   AR                   57.73618              12.76552              27.67579
   AR                    7.48406              19.44114              19.13133
   AR                   67.09338              29.70339              17.26830
   AR                   94.23300              30.58372              33.59137
   AR                  101.99165               1.33456              10.95146
   AR                   62.71695               3.69627              50.80838
   AR                   17.33595               2.30896               3.35590
   AR                   29.99097              20.82561              13.03518
   AR                   76.11592              47.52871              32.77287
   AR                    2.67976              22.92895              29.13654
   AR                   63.31247              24.93341              39.64066
   AR                   51.61071              35.36952              32.41072
   AR                   71.72318              32.98971               9.15427
   AR                   30.00823               4.99782               4.85311
   AR                   84.22809              12.66320              28.16536
   AR                   56.25230              37.98283               5.46246
   AR                   61.72735              31.82351              17.64431
   AR                   97.96894              14.04040              50.40914
   AR                   22.70780              11.12859              19.17553
   AR                   22.66798              30.51981              29.81044
   AR                   52.66294              12.26256              13.12217
   AR                   55.27256              48.72917              44.75092
   AR                   81.68011              47.22277               7.88157
   AR                   71.20855               7.40121               2.44842
   AR                    5.00923              26.26007              30.49450
   AR                   87.58791              50.49012              39.24727
   AR                   83.79890              26.14442               7.27853
   AR                   61.08378              12.96204              18.89642
   AR                   93.60567               2.47724              49.08674
   AR                   67.23673              12.63391              33.06282
   AR                   54.83513              24.44455              33.80479
   AR                   68.76319              42.48669              12.80730
   AR                   63.02443              12.20936              44.29995
   AR                   66.69199              49.83034              45.13969
   AR                    0.66345               8.66659              20.19103
   AR                   92.17022               7.35527               6.49242
   AR                   55.27643               2.18698              38.75478
   AR                   72.13990              35.10955              48.56380
   AR                   74.70270               5.41655              37.60858
   AR                   22.26984               8.45023               6.22104
   AR                   53.95335              17.01467              30.68790
   AR                   82.34022              51.01457               1.34643
   AR                   68.27111              47.03653              40.93845
   AR                   83.36760              47.58183              43.89760
   AR                   60.86034               1.90820               3.60492
   AR                   68.81642              35.35904              49.95971
   AR                   55.69504              31.20416              38.68095
   AR                    9.71540              15.37445              15.61654
   AR                   70.94650               9.94959              30.60267
   AR                    6.28634              13.62431              26.38580
   AR                   57.43464              24.63482              30.92830
   AR                   74.64809              30.92249              32.57278
   AR                   51.65369              44.08262              11.46572
   AR                   98.39903              50.29520              34.77703
   AR                   86.21855              30.16741               2.80807
   AR                   54.82994               0.55042              22.55868
   AR                   84.29206              22.08494              25.33784
   AR                   52.49440              45.10610              15.82507
   AR                  101.22683              49.65190              21.34536
   AR                   92.98628              40.01295              33.24659
   AR                   69.12667               9.41961              42.65264
   AR                   66.50837               9.68558               3.06044
   AR                   84.34080              25.36867              15.50338
   AR                   69.12275               4.01171              26.87119
   AR                    8.99534              10.89166               5.39122
   AR                   59.03248              41.38089              37.79515
   AR                   62.92377              32.71851              49.83902
   AR                   73.88213              21.94419              25.71095
   AR                   74.26073              27.65528              39.50941
   AR                   89.75812              43.76263              18.67287
   AR                   56.47684              13.68839              38.58254
   AR                   55.72716              49.81911               0.11017
   AR                   65.15159              37.95277              40.87097
   AR                   61.05298              27.40214               4.07359
   AR                   84.00470               0.86529              13.86309
   AR                   76.95102              52.25437               4.99648
   AR                   53.38062               4.90514              12.24215
   AR                   72.91296              16.60179              29.81783
   AR                   69.60771               4.95777              37.91219
   AR                   97.08982               4.02218              10.93069
   AR                   78.15606              11.90827              48.23315
   AR                   61.02900              30.92283               4.01255
   AR                   17.99423               5.50243              23.38456
   AR                    4.74106              23.29210              25.15369
   AR                   53.14825              46.97447              12.41670
   AR                   59.90592              28.37436              42.52143
   AR                   85.03402              50.17341              50.15065
   AR                   58.02790              51.56577              32.47785
   AR                   93.47636              25.26883              12.30702
   AR                    7.43277              26.95312               3.72255
   AR                   58.18698              14.49230              50.88167
   AR                   81.39764               4.33727               5.68989
   AR                   59.76181              14.47562              36.89638
   AR                   52.51326               4.84663               3.24224
   AR                   55.23164              37.36576              25.24734
   AR                   95.13200              12.33489               5.20852
   AR                   96.21184              47.16562              28.94738
   AR                   79.72092              36.43072              21.14922
   AR                   57.33904              48.30784               6.38547
   AR                   22.53136              22.58910              16.35853
   AR                   68.50730              23.37486              41.37997
   AR                   92.60225              36.93947              22.72566
   AR                   69.51464              14.42343              26.62083
   AR                   72.13198              27.91187              35.20530
   AR                   56.09930               3.41695               0.94556
   AR                   92.24230              37.69317              51.46118
   AR                   11.47619               6.30106              15.13101
   AR                   97.75499               9.37734               5.29470
   AR                    0.38269              21.18042              15.61421
   AR                   95.38925              25.53776              38.98951
   AR                   50.65115               3.81260              14.27214
   AR                   56.31101              39.42279              47.47983
   AR                   98.40459               1.42985              39.49617
   AR                   28.66074               8.99960              17.68205
   AR                   74.70031              49.87988              43.04433
   AR                   89.68950               9.22680              13.67650
   AR                   56.68234              45.41281              24.44771
   AR                   54.73898              36.75351              34.29222
   AR                   19.54629              18.92406              32.65595
   AR                   53.75489              50.11887              38.53524
   AR                   84.03226              26.33662               0.74106
   AR                   14.14206              20.99710              30.57796
   AR                   90.08986              25.15441              15.50214
   AR                   82.54170               3.98171               2.00458
   AR                   99.77116              24.86064              51.01749
   AR                   94.32187               0.39637              42.49320
   AR                   81.92801              10.49470              34.40408
   AR                    3.79092               4.02000              17.17240
   AR                   84.38270              48.97059              31.48727
   AR                   15.88492               3.40442              19.26745
   AR                   89.75685              10.01934               8.16798
   AR                   70.11383              17.93309               9.49625
   AR                   78.94446               6.19700              20.46782
   AR                   65.55014              22.88775              35.86108
   AR                   69.01122              37.60136              37.98639
   AR                   19.28965              14.29879               0.67113
   AR                   65.59815               1.01309              30.06411
   AR                   75.47314              41.16975              37.41604
   AR                   94.37505              40.39664              26.76389
   AR                   86.32658              12.89461              14.45769
   AR                   70.94026              47.21763              30.77924
   AR                   75.21293               1.01759              42.09388
   AR                   71.72374              20.93096              40.31795
   AR                   84.46279               4.53397              11.73721
   AR                    6.71232              33.25073              25.55586
   AR                  100.97773               3.43905              50.35744
   AR                   73.16679              11.01547              37.38081
   AR                   70.93639              30.15423              17.21082
   AR                   73.46399               5.17930               3.79868
   AR                   56.06544              47.60111              28.12856
   AR                   60.95257              51.85360              47.38475
   AR                   57.12504              38.17223              51.16588
   AR                   88.60114               8.29305               5.07130
   AR                   75.58641              16.02729               0.78939
   AR                   77.17779               4.37053              16.53279
   AR                   93.38962               4.64461              33.86604
   AR                   51.08716              41.35131              46.38989
   AR                   55.40422              35.71403              48.07648
   AR                   11.47126               4.07746              17.85475
   AR                    1.44643              28.18483               5.71722
   AR                   53.02172              19.57045               1.57281
   AR                   60.87915              19.70654               0.68743
   AR                   53.52919              49.51739              33.94075
   AR                   71.34469              41.32235              43.11895
   AR                   75.92294              19.07843              24.60921
   AR                   84.97896              31.41388              46.46077
   AR                   84.98970              50.37306              27.74910
   AR                   52.65029              18.58823              27.29803
   AR                   97.73271               2.53369              47.64632
   AR                   25.39811              10.07595               7.40537
   AR                    6.68627              30.58989              23.05787
   AR                   95.59020              11.32663               8.59031
   AR                   65.28804              30.20287               8.08979
   AR                   22.02919              16.50122              16.10482
   AR                   97.03394              38.27658              13.21674
   AR                   74.38481              46.18427               9.84019
   AR                   80.33042              42.91497              16.62163
   AR                    0.64305               1.27443              24.06673
   AR                   54.06514              37.47894              19.77504
   AR                   51.86995              21.90133               4.25049
   AR                   75.59411              38.19892               7.51306
   AR                   78.60559              27.41206               1.17651
   AR                   57.56782              27.73220              19.03124
   AR                   78.99842              47.97959              17.91833
   AR                   65.98890              51.48020               4.63661
   AR                   28.89618              28.88583              10.92480
   AR                   70.52398              19.40713              30.34657
   AR                   54.10827               6.28575              28.54762
   AR                   94.75446              39.48638              30.45465
   AR                   78.46771               7.10901               1.50209
   AR                   88.60773              13.51634              10.85864
   AR                   59.64214              14.49145              33.00199
   AR                   66.04605              22.87478              26.60593
   AR                   82.56583               0.81527               6.19297
   AR                    6.68972              29.70788               1.31162
   AR                   72.11432              32.71520               5.25032
   AR                   95.57214              14.35813              38.32478
   AR                   93.77694               3.12774              45.75522
   AR                    2.97728              10.85147              12.97096
   AR                   96.13652              10.67244              39.36832
   AR                   98.06421              34.75193              17.35130
   AR                   80.90634              18.62022              26.08639
   AR                   64.13171              11.73089              12.41716
   AR                   78.85357              31.65528              50.26423
   AR                   18.51461               5.26101              16.93120
   AR                   56.64789              13.77997              19.71698
   AR                   76.46662              40.58058              27.22543
   AR                   81.10131              23.35692              10.02180
   AR                    1.41345              25.41050              11.86096
   AR                   73.97111              35.59122              30.99972
   AR                   25.39535              22.61098              13.60784
   AR                   84.13720              36.85556              50.42502 FRACTIONAL
   AR                   58.48491               2.95448              46.21310
   AR                    1.83402              30.80738              23.36058
   AR                   65.67945              46.24737              25.89461
   AR                   10.06788              13.03994               8.88937
   AR                   29.94704              17.44410              19.50804
   AR                   58.47057              28.48091              30.58706
   AR                   69.47822              23.82154              34.89493
   AR                   68.80069              22.43748              22.39579
   AR                   89.14572              36.22142              15.35505
   AR                   30.52982              23.16623              21.98587
   AR                   51.43157               7.71621               1.26211
   AR                   88.84753               6.51830              40.49256
   AR                   70.08664              30.44218              21.59741
   AR                   13.08699              24.59125              15.29975
   AR                   86.48797              32.43186              39.01650
   AR                  102.13854              14.72009              10.01991
   AR                   51.04820              23.18548              19.18039
   AR                   73.47421               7.81720              32.14077
   AR                   13.95917              22.87757              25.26815
   AR                   80.09157               5.53609              42.88831
   AR                   64.71345              33.65202              43.11622
   AR                   75.56715              42.31875              18.98226
   AR                    1.30068              16.44966               4.37277
   AR                   99.31815              13.87364              12.54187
   AR                   94.88699              23.73779              31.73118
   AR                   88.99664              46.75503              43.70568
   AR                   19.25326              10.43543              20.38290
   AR                   23.43291               0.46004               4.68901
   AR                   22.72148              23.63451               1.00595
   AR                   23.91466              10.98918              11.67800
   AR                   71.04132              35.75898              14.46111
   AR                   82.19672              10.20976              40.54981
   AR                   66.02777               8.77927              34.96423
   AR                   96.15250              32.38660              13.70459
   AR                   77.00955              12.93664              30.74159
   AR                    8.80085              20.54656              11.69078
   AR                   74.05870              47.75172              27.12295
   AR                   58.90350              44.75545              19.58971
   AR                   98.32953              12.17136               3.03490
   AR                    3.59130               1.51802               6.53620
   AR                   57.43714              32.51607              32.75987
   AR                   50.97382              22.57489              10.76821
   AR                   83.35817              19.81610              39.30175
   AR                   82.73870              43.24331              31.61015
   AR                   89.38834              26.53636              46.24364
   AR                   75.94724              21.40440              39.53802
   AR                   90.06043              12.24799              30.10101
   AR                   95.04162              43.36347              29.32025
   AR                   64.18623              22.95374              17.17461
   AR                   62.60858              41.05085              28.45527
   AR                   74.58862              35.43478               3.51131
   AR                   96.83323              50.25327              26.40502
   AR                   58.39819              32.31474               0.43983
   AR                   94.40161              17.67433              43.94579
   AR                   73.27029              34.01605              44.17485
   AR                   50.69113              23.34561              42.12453
   AR                   25.86956              28.80798              14.89983
   AR                   50.94646              48.27433              19.03299
   AR                   72.01049              30.50336              43.48368
   AR                   84.00173              12.20354               0.72882
   AR                   63.18961              36.45067              35.69897
   AR                   83.53465              35.10194              33.74186
   AR                   75.66252              45.52598              39.40326
   AR                   99.75709              33.97404              33.75305
   AR                   95.29912               8.27465              36.00146
   AR                   22.03072               7.90361              21.02171
   AR                  100.65474              40.76812              24.10273
   AR                   93.90943              47.58003              37.65621
   AR                   91.66279              29.08648              46.66950
   AR                   98.89722              19.26401               9.99271
   AR                   98.58662              20.98425              50.96352
   AR                   82.57928              32.30693              39.68979
   AR                   25.00660              25.16661               3.83627
   AR                   93.85552              45.91694              48.60308
   AR                   73.02921               0.44845               5.36241
   AR                   65.93660              15.66609              10.78312
   AR                  101.71277               9.34907              12.25876
   AR                   60.40990              36.21305               6.24083
   AR                   67.09145               0.19663              13.86648
   AR                   57.50403               5.32027              19.68708
   AR                   50.55256              38.73436              20.66459
   AR                   95.23292              45.99250              35.29026
   AR                   92.55767              39.41222              39.85732
   AR                   98.54622              23.29599               1.37439
   AR                   97.95793               2.26870              13.95251
   AR                   66.36241              13.39175               1.91780
   AR                   59.06080              34.56163              42.96549
   AR                   12.75459              10.88353              13.82621
   AR                   85.05101              21.67851              11.06965
   AR                   65.37919              34.86653              25.78016
   AR                   54.76930               5.59037              44.09559
   AR                   96.23751               7.78636               3.01499
   AR                   90.12559              24.52825               5.77748
   AR                   94.14586              27.81477              49.53230
   AR                   53.05358              42.62852              18.79434
   AR                   71.81111               5.29530              30.92337
   AR                   57.09583               3.71062              22.88116
   AR                   81.77872              50.82430              46.86097
   AR                   84.01858              51.71319              37.43256
   AR                   85.16215              36.15409               3.96976
   AR                   29.60661              13.72394              20.46948
   AR                   15.18749              23.18249               1.30925
   AR                   86.72305              17.32555              45.73587
   AR                   23.21353               0.08445              27.81946
   AR                   59.69194              18.58218              26.64261
   AR                   94.30701              44.30608              32.61736
   AR                   58.47909              41.59532               6.58486
   AR                   26.82523              33.28459              25.22776
   AR                   75.98667              31.07472              44.17315
   AR                   82.10295              22.70940              31.33834
