       206
            31.88835            77.48717
   AR                  117.82707              68.63267              46.11073
   AR                   78.13047              17.72031               6.30975
   AR                   65.83107              53.60605              71.08369
   AR                  115.42989               7.65850              20.43226
   AR                  122.70637              21.44902              22.77744
   AR                   81.09862              25.91719              22.08415
   AR                  106.51305               3.53318              16.63288
   AR                   61.45407              65.56379              14.44927
   AR                  117.03036              75.83981              70.24664
   AR                   83.36082              45.60471              21.95742
   AR                  106.55438              18.83933               2.31823
   AR                   73.52226              23.80788              74.38700
   AR                   83.78545              39.39339              26.20058
   AR                   82.75266              39.39675              72.68931
   AR                    4.03402               4.61787              10.96021 FRACTIONAL
   AR                  106.64366              27.09669               6.38595
   AR                  107.46562              39.64437              47.95479
   AR                  111.56425              16.58777              39.21445
   AR                   86.26850              19.24625              45.27397
   AR                   50.46475              12.22365              71.78114
   AR                   68.37242               7.61673              33.21486
   AR                   83.24735              62.11845               4.49364
   AR                   84.52846              11.10093              34.71567
   AR                  100.32775              73.45219              26.68988
   AR                  110.69699              42.85419              52.86175
   AR                   82.87499              66.99937              48.35436
   AR                   62.94339              15.75183              63.09920
   AR                   70.91566               6.08658              48.67629
   AR                   49.07655              56.18316              58.68726
   AR                  122.48767              13.62704              72.48137
   AR                   59.49227              13.58593              71.47105
   AR                   61.78689              70.18945              45.46002
   AR                    6.69626              21.69062              17.80229
   AR                   80.29702              67.30727              56.19618
   AR                   59.27289              39.84156              57.26632
   AR                  100.28599               4.76855              58.57433
   AR                  107.38810              17.57135              33.44969
   AR                   82.59352              26.38412              36.66796
   AR                   64.07269              67.32025               4.55348
   AR                  115.19085              25.30305              63.39866
   AR                   86.47046              66.37930              55.76608
   AR                   89.05660              41.66756              76.08262
   AR                   76.05886              40.72589              71.92435
   AR                   72.54605              72.21290               1.10986
   AR                  109.75606               0.53833              75.81048
   AR                  124.23420              49.52689              70.77245
   AR                   93.29372              61.13943               6.76126
   AR                   51.54792              64.52695              32.66293
   AR                   55.01740              45.30422              34.62233
   AR                   95.83308              60.73884              52.92791
   AR                  118.00999              57.43633              48.78015
   AR                   87.37815              64.38167              16.84887
   AR                   68.56886               2.48530              70.41649
   AR                   77.98451               4.28439              56.00866
   AR                   63.20085              10.37253              10.60391
   AR                  113.05686              27.33715              18.57666
   AR                   97.08403              41.04279              41.40203
   AR                   69.17232               6.37424               6.25155
   AR                  104.38799              15.36590              11.45740
   AR                  113.82102              46.20834              37.30867
   AR                   20.47508              25.79516               8.44790
   AR                  107.22484              48.50292              46.67454
   AR                   52.98025              72.84805               2.54425
   AR                   85.41038              76.19750              30.01592
   AR                   26.76245               5.78018               7.92489
   AR                   64.88568              57.72720              33.28128
   AR                   58.83676              73.87184              64.34426
   AR                   65.21535              45.62130              12.07542
   AR                  115.04542              30.71193              21.66324
   AR                   88.65522              49.73226              47.69695
   AR                  106.16210               2.22257              21.90055
   AR                   67.25667              21.69548              62.93728
   AR                   88.23603              28.88002              60.20745
   AR                   86.15629              12.25549              13.06493
   AR                   69.76192              32.88609              43.68610
   AR                   68.56675              33.37781              47.44184
   AR                   93.32870              41.88435               5.31627
   AR                   63.05217               0.81341              69.88597
   AR                  124.71154              64.70817               9.83800
   AR                   77.21724              32.61589              44.39266
   AR                   21.43683               9.71444              22.24241
   AR                  119.28976              15.10666              62.09867
   AR                   56.69984              49.04044              45.91962
   AR                   65.69114              51.60118               2.58776
   AR                   67.03857              26.01008              72.41518
   AR                   55.35018               3.47663              64.33351
   AR                   73.04150              54.82542              42.67437
   AR                   10.60474              12.86901              21.10834
   AR                  110.74649              33.78474              52.47345
   AR                   90.88693              35.18616              64.49763
   AR                  115.35857              27.20287              15.49002
   AR                   93.48598              27.87891              39.67151
   AR                  108.48118              29.99585              16.97805
   AR                   48.07377              76.31475              53.51778
   AR                  102.62212               0.57307              42.79053
   AR                   55.31610              68.51336              39.45015
   AR                   63.85780              56.01967              24.17476
   AR                  104.87380              29.64467              47.43268
   AR                   62.34804              42.49799              52.62233
   AR                  115.21515              41.85993               5.89375
   AR                   89.31066              50.28784              30.94472
   AR                   82.12774               9.17161              20.95239
   AR                  108.38035              48.61665              50.26120
   AR                   87.52731              32.43456              66.45578
   AR                  122.90319              35.66986              30.19471
   AR                   20.16838              27.99696              12.64936
   AR                   89.45656              29.21478              53.63505
   AR                   90.44305              22.06275              12.36403
   AR                  122.29254              25.12095              35.24306
   AR                   63.82237              38.53133              41.07861
   AR                   76.21696              68.36507              21.83058
   AR                   89.61710              41.15327              49.46604
   AR                   12.20128              29.81384               6.96683
   AR                  110.74070              34.84553              76.37923
   AR                  122.96837              61.87334              48.93813
   AR                  119.72197              64.93467               1.18388
   AR                   72.23371              37.10604               5.39868
   AR                   71.01461              60.28637              60.88222
   AR                  124.98759              68.96421              15.73150
   AR                  118.66174              58.44215               1.69689
   AR                   91.34262              61.51713               1.08659
   AR                   28.17397              31.71314               4.67530
   AR                   84.49109              17.83650              41.09713
   AR                   60.16490               0.55493              31.13343
   AR                   92.50522              21.75349              61.91198
   AR                   61.94283              35.95293               2.39833
   AR                   51.72038              36.93865              36.95965
   AR                   49.45868              28.31671              29.66343
   AR                   67.36882              40.04480              45.91868
   AR                  124.53691              67.88884               6.92266
   AR                   85.62156              56.35563               2.96061
   AR                   66.64324              42.55474              52.24421
   AR                   58.09993              64.66674              14.34682
   AR                  117.97978              13.52383              24.51734
   AR                   50.26044              23.39627              45.54353
   AR                   65.14203              18.79176              61.34928
   AR                   24.20334              27.27169              18.94345
   AR                  101.14259              69.03168              16.18361
   AR                  108.43554              72.91673              20.46831
   AR                   89.71499              59.56086              15.07429
   AR                   72.66335              20.64886              66.22287
   AR                  115.39182              33.17856              15.30159
   AR                   60.99839              27.19986              59.85002
   AR                  116.59956              18.29884              19.76500
   AR                   73.70415              34.75275              43.21116
   AR                   55.97814              15.86204              10.08384
   AR                   79.82436              63.73772              66.35035
   AR                   52.32506              74.41726              25.01888
   AR                  116.99817              69.93185              11.66377
   AR                   51.44792              51.13428              30.45881
   AR                   73.92315              56.94869              49.99000
   AR                  116.89027              35.86926              17.95734
   AR                   85.20678              10.36749               1.81305
   AR                   78.55544              35.85385              16.46237
   AR                  110.79769              57.15855              74.76651
   AR                  101.80416              59.74043              33.19454
   AR                   77.82375              67.72450              69.45226
   AR                   63.97224              72.27575              34.11101
   AR                   12.30361               4.79848              31.36401
   AR                  103.21309              40.82208              34.07591
   AR                   57.98294              66.99428              70.34189
   AR                  124.02607              38.15718              76.35951
   AR                   59.24159               7.97669              30.98906
   AR                   83.35894              60.57787              33.37539
   AR                   96.46711               1.82517              42.44423
   AR                   59.90003              27.40375              75.84113
   AR                   88.79566              71.81548              48.75999
   AR                   99.24810              29.10804              11.71457
   AR                   49.24824              59.17636              63.50989
   AR                   69.22029              25.00062              25.89057
   AR                   80.68887              55.15336              51.66410
   AR                   91.49614              60.29938              53.93105
   AR                   96.03644              22.27192              19.54193
   AR                   81.37124              36.20488              75.65735
   AR                   64.63600              11.60005              56.15818
   AR                  120.15759              69.44013              51.74643
   AR                   53.35793              49.55504              24.50146
   AR                   83.21606              18.89544              59.39043
   AR                   82.61483              36.93838              21.98503
   AR                   94.05379              50.40439              52.43934
   AR                   65.42586              68.75181              40.29718
   AR                  109.97081              72.05042              62.10499
   AR                   86.68929              61.65816              68.56914
   AR                   86.10181              46.60369              67.22288
   AR                   60.36115               2.21615              10.78245
   AR                  103.02708              23.63277              41.22883
   AR                   28.45325               5.82931              19.77567
   AR                   72.29572              26.03266              35.39039
   AR                   85.65253              67.16603               2.28679
   AR                   99.21323              42.53083              31.89583
   AR                  114.92768              17.87228               1.04257
   AR                   85.58688               7.11638              54.90632
   AR                   98.54123              22.81518              38.63371
   AR                   87.77232              49.71163              38.85728
   AR                  114.93516               0.92265               6.90298
   AR                   56.81128              43.68733              43.16691
   AR                   59.77272              49.07446              18.50347
   AR                  104.01412              51.05609              52.70017
   AR                   61.89356              17.05002              23.54137
   AR                  101.29826              66.87371               1.03442
   AR                   29.84351              20.69130              31.74506
   AR                   80.54085              62.71515               2.27461
   AR                   75.72395              24.41322              16.80657
   AR                   62.81368              40.28572              75.89034
   AR                   94.35382              72.88793              14.91004
   AR                   95.65269              25.89481              64.20794
