       356
            34.81835            53.90021
   AR                   70.79646               3.49878               1.14333
   AR                   69.57894               8.66866              45.97202
   AR                   72.82250              46.00515               3.18191
   AR                   28.12875              14.73554               5.84819
   AR                    2.74442              33.42902              14.99748
   AR                    4.57452              22.18528              34.62358
   AR                   53.81989              28.96569              48.47087
   AR                   53.49225              47.00440              39.15109
   AR                   21.14022              16.95693               1.72943
   AR                   80.74897              21.81904              11.42216
   AR                   17.94603              11.62258               7.58237
   AR                   52.41263              23.03370              25.01248
   AR                   91.35780               4.29367              21.97626
   AR                   20.45057              33.83383              30.85330
   AR                   93.58051              40.35248              46.48735
   AR                   52.53811              28.03318              40.10127
   AR                   63.33792              19.84263               4.51284
   AR                   99.63259              33.11261              37.20010
   AR                   54.98473              15.33503              40.04749
   AR                   82.83539              29.47776              46.57348
   AR                   11.48602               1.81160              18.62981
   AR                   71.43852              50.35017               6.61428
   AR                  100.15245              18.24971              14.31057
   AR                   63.39031              34.51729              31.18262
   AR                   86.43710              44.47050              13.66395
   AR                  102.91251              32.98854              50.71156
   AR                   25.58574              22.78122              16.78962
   AR                   66.57688              26.30147              30.41911
   AR                   24.92518              29.27534              23.84301
   AR                   76.16511              21.70721               0.94674
   AR                   30.36765              26.55002               2.62538
   AR                   65.84783              38.43747              23.69301
   AR                   60.82091              35.78593              15.59091
   AR                   77.03073              23.17929               7.11417
   AR                   71.83000              21.50405              46.25091
   AR                   78.24890              50.67218               6.53186
   AR                   25.52640              25.61204               4.09683
   AR                  103.56924               7.25906               8.70565
   AR                   81.59585               4.10896               5.11442
   AR                   83.69857              20.91555               4.37327
   AR                   68.61623              43.31270              50.05375
   AR                   63.25727              19.21223              35.83135
   AR                  104.11210              47.55588              41.74834
   AR                    4.61515              30.42681              10.33914
   AR                   59.29658              50.46719              47.22972
   AR                   78.49531              17.75211               7.44994
   AR                   98.59069              36.55359              17.39044
   AR                   95.38055              25.47610              50.12738
   AR                  101.78985              53.14151              40.04063
   AR                   25.09755              34.80157              30.84056
   AR                   91.50589              24.99516              15.78863
   AR                    7.95994              14.76204              31.09047
   AR                   80.93202               6.93443              21.68319
   AR                   24.22200               4.40734              12.49557
   AR                   64.56914              26.88540              24.38374
   AR                   80.42163              44.90315               4.56796
   AR                   18.13801              24.00294               1.87202
   AR                  100.11427               5.17592              41.21738
   AR                    4.77903              10.24159              34.56045
   AR                   77.30627              32.49086              23.73960
   AR                   57.35461              16.37995              37.83473
   AR                   95.78736              45.64641              21.69615
   AR                   53.94892               3.95189              18.33979
   AR                   67.75282              11.90618               9.03942
   AR                   89.32553              20.60950              50.65250
   AR                   31.34943              16.87124               0.02037
   AR                   54.56458              36.08438              47.13197
   AR                   94.14714              39.53907              28.97252
   AR                   15.16947               6.64025              14.33321
   AR                  103.67212               7.36862              29.82885
   AR                   25.63230              28.20019              27.40309
   AR                   62.86001              19.35721              40.60907
   AR                   98.80778              24.42901              33.98579
   AR                   18.87063              32.38804              33.27307
   AR                   72.85015              13.14507               3.88864
   AR                   98.65452              40.43702              22.94875
   AR                   76.61390              14.96192              51.05581
   AR                   80.63925              26.17961              17.27155
   AR                   58.65381               2.43897              44.56233
   AR                   90.37476              44.70075              16.01330
   AR                    2.73378               7.34511              28.10847
   AR                   69.16517              39.27086              40.21508
   AR                   79.21233              44.46379              41.13918
   AR                   74.80882              23.92189              22.50037
   AR                   91.03710              25.13697              34.75310
   AR                   62.71499               7.93982              52.72677
   AR                   59.52997              32.28356              50.23265
   AR                   66.04600              22.11979              23.88985
   AR                   29.05340              27.28652               6.87528
   AR                   74.73385              49.07048               3.81452
   AR                  103.78726              51.21806              42.43498
   AR                   87.74317               8.03354              45.97538
   AR                   74.35192              40.82265              50.46300
   AR                    5.32043              33.30368               5.32157
   AR                   88.11356              29.89648               2.26985
   AR                  103.53037              36.63489              49.68927
   AR                   54.81234              42.85418              32.78941
   AR                   57.53829              42.56577              23.69564
   AR                   77.58237               3.01619              39.13962
   AR                   88.23595              35.13860              19.33336
   AR                   69.50140              22.49760               9.88535
   AR                    0.50312              14.47157              22.24790
   AR                   55.10755              19.19492              27.97364
   AR                   79.37495              30.65918              20.03536
   AR                   53.89729              35.43701              52.11449
   AR                   59.94629               9.58167              25.22589
   AR                   78.14266              13.56020              28.10806
   AR                   66.20478              18.07731              10.99675
   AR                   98.72719              34.91278              31.96255
   AR                   84.48133              44.92731              34.18261
   AR                   96.57136              14.36341              26.68284
   AR                   53.49552              11.98676              53.54704
   AR                   98.91363              45.64363              46.79145
   AR                   73.78256              23.40486               4.16125
   AR                   65.99041              12.96561              49.67417
   AR                   70.35982              24.24355               0.39776
   AR                   97.54296               9.87624              23.54426
   AR                    4.95688               3.19881              11.85992
   AR                   52.84611              50.70090              40.85203
   AR                   79.07907              11.58595              21.21252
   AR                   96.10823              46.28288              53.51865
   AR                   73.77669              29.24890              48.64796
   AR                   92.42753              39.18151              22.23336
   AR                  100.69337               0.66335              11.87787
   AR                   59.42700              28.72563               3.64754
   AR                   71.38108              37.95088              53.68997
   AR                    4.74589              10.02113              26.05185
   AR                   73.93999              47.23983              47.32901
   AR                  100.22820              25.24197               2.94946
   AR                  105.39078              23.31136               1.29484
   AR                   69.85867              53.34851              41.04920
   AR                   59.94736              11.05265              34.11036
   AR                   18.05909              22.84914              33.22308
   AR                   90.08963              15.70914              19.34573
   AR                   90.78168              51.39958              10.39685
   AR                  100.52357              25.50088              22.46829
   AR                   34.17045              24.34521              31.02869
   AR                   85.02575              11.99105              24.60905
   AR                  102.08969              27.51699              50.83809
   AR                   90.47407              37.74657               2.60147
   AR                    2.31173               0.06127              18.77038
   AR                   96.21597              43.70134              46.96289
   AR                    8.35072              21.92167              34.73035 FRACTIONAL
   AR                  105.56248              32.61355              33.75154
   AR                   93.84357               9.51071              34.74931
   AR                   96.35635               0.89826              22.43861
   AR                   29.92522              22.55736              23.50943
   AR                   68.11694              43.05452              45.42726
   AR                   59.73588              48.30951              19.62089
   AR                   14.23169               2.94725              11.62753
   AR                   77.32640              29.14355              33.50042
   AR                   99.15159               2.15497              39.45547
   AR                  100.27327              18.43212              21.56918
   AR                   71.35668              25.24347              23.01802
   AR                   78.96984               5.54127              28.47640
   AR                   89.37348              22.94294              22.45446
   AR                   81.92149              22.35351              49.18847
   AR                   92.86583              36.18740              48.68726
   AR                    5.19708               3.34247               7.94050
   AR                   67.93463               7.72277               9.44937
   AR                   82.18167               7.35361              29.52582
   AR                   57.95184              19.61940              33.94587
   AR                   68.17021              44.05101              18.76338
   AR                   82.74765              34.15771              45.20426
   AR                   89.71147              38.79998              17.81028
   AR                   80.39804              32.68235              25.42142
   AR                   15.84823               7.24305               4.25737
   AR                  103.34054              26.57011              26.08811
   AR                   62.21400              39.18924              42.83918
   AR                  100.20171               0.49899              45.08549
   AR                   82.98325              53.21700               7.83933
   AR                   92.87631               6.59028              13.91743
   AR                   54.05527              53.38447              36.17715
   AR                   94.15033               9.02475              22.91995
   AR                   91.66148              28.48913              13.92313
   AR                   84.69850              28.93602              34.32607
   AR                   75.54929              44.05922               5.27332
   AR                   85.55565              18.43792              17.13573
   AR                   61.82099              31.86583              13.77264
   AR                   82.36799               6.29717              33.26738
   AR                   67.11781              12.85747               1.50109
   AR                   76.18909              47.98153              44.19693
   AR                   89.36993              18.87171              14.97889
   AR                   79.22003               3.00592              34.69521
   AR                   61.32659              34.68909              40.62864
   AR                   85.61322               2.76853              17.63793
   AR                   84.19453              24.74742               7.64483
   AR                   14.42251              25.28994               3.57127
   AR                   64.48763               5.85081              42.03199
   AR                   78.85283              50.60300              40.51026
   AR                   12.40206              21.88810              23.08185
   AR                   31.58100              33.49727              19.72686
   AR                   28.53834               7.60476              18.55692
   AR                   76.57168              43.78481              43.24681
   AR                   67.47827              50.32232              12.94421
   AR                   70.86530               0.69011              13.78977
   AR                   82.76050              43.16774               2.05392
   AR                   68.00999              36.77623              10.88966
   AR                   82.86290               6.66476              50.01707
   AR                   89.73493              50.31885              45.20609
   AR                  103.03734               3.40306               6.66175
   AR                   77.39554              35.43397              51.08627
   AR                   62.94865              38.79635              19.06819
   AR                   72.21564              34.13813               3.39238
   AR                   77.35078               1.51778              42.20545
   AR                  105.51085              29.91955              31.29146
   AR                   83.89242              18.37992              45.90578
   AR                   82.26734              24.25993              34.15967
   AR                   68.50633              21.59287              49.02254
   AR                  104.55716              33.12302              18.80125
   AR                   56.70576              16.50789              30.23121
   AR                   89.08137              35.23380              31.03065
   AR                   93.67110              49.50639               5.38336
   AR                   86.02639              12.23910              37.68709
   AR                   10.98597              25.45367              16.52121
   AR                   89.11700              50.45722              22.25975
   AR                   88.51001               3.10782              12.72721
   AR                   79.95749              50.81840              49.39143
   AR                    4.06379              19.33804               5.46440
   AR                   59.25246               0.11809              26.45123
   AR                  103.75093              45.87023              44.97505
   AR                    5.11790              30.01278               6.35461
   AR                   67.41008              22.52676               0.28952
   AR                   54.49063              35.72755              12.73310
   AR                   86.90564              39.09003               1.87743
   AR                   60.59378              38.06657              39.56875
   AR                   28.99745               0.29087               7.82187
   AR                   86.24971              26.66424              40.73136
   AR                   90.86309              33.06951              48.46819
   AR                   14.64985              23.23051              31.61331
   AR                   97.18163               5.63334               6.56976
   AR                   55.27574              50.56869              46.04235
   AR                   96.70018              46.34452              36.24035
   AR                  101.86733              53.69752               8.61790
   AR                   90.42425              36.70034              25.06192
   AR                  105.15987               7.52236               2.26536
   AR                   19.53771              10.98418              31.41326
   AR                   61.01282              10.57438              38.65769
   AR                   16.58091               3.59819              14.41522
   AR                   88.53600              27.84904              52.90452
   AR                   89.89006              50.10394              36.47977
   AR                   25.91150              14.79922              16.40265
   AR                   97.95425               8.40137              44.82957
   AR                   54.85509               2.44215              49.99840
   AR                   12.32743              18.71041              11.61755
   AR                   73.82855              43.41093              27.95314
   AR                   98.29590              52.72983              37.90753
   AR                   83.09499               7.62128              42.99854
   AR                   75.69283              15.94566              42.60415
   AR                   59.29997              52.70390              23.29612
   AR                   96.54470              51.07884              32.94211
   AR                   62.12405              31.11190              24.33979
   AR                   78.12278               1.31710              15.87276
   AR                   22.74921              29.30960               5.25557
   AR                   81.91704              27.79127              39.73420
   AR                   58.36395              15.34484              14.06538
   AR                  102.12595              26.00202              13.01652
   AR                   17.42038               9.56365              15.23915
   AR                  102.84973              44.93638              34.68775
   AR                   73.03554              22.73995              14.56654
   AR                   55.68522              12.43072              14.52841
   AR                   61.09192              41.64162              25.96105
   AR                   66.55776               2.40519               7.71288
   AR                   26.11586              10.78777              16.30010
   AR                   33.84445               6.12959              31.20396
   AR                  103.59603              30.19539               8.06862
   AR                   55.11634              10.32795              43.44359
   AR                   27.47348              17.17152              19.07744
   AR                  103.92468              24.29117               9.87911
   AR                   52.47088               1.19063              41.45233
   AR                   83.55841              10.91987              40.81105
   AR                    7.56819              26.04838              14.80841
   AR                   90.15778              45.20249               3.36187
   AR                   18.85430               2.47312               6.36821
   AR                   97.46957               9.23656               4.70512
   AR                   94.63151              39.03852              12.81544
   AR                   67.42038              47.08742              50.34558
   AR                   65.82928              37.58559               3.81475
   AR                   82.04195               2.34095              31.29672
   AR                   90.93094              19.17094              21.29446
   AR                   98.76082              10.62999              35.58808
   AR                   17.00801              30.73936              10.06161
   AR                   99.07588              12.67212              23.32059
   AR                   30.34193               4.40338              16.56562
   AR                   27.68443               9.52854              29.70719
   AR                   54.47138               5.58966              15.38577
   AR                   31.69565               9.09088              27.54260
   AR                   73.90121              20.89730              17.28865
   AR                    5.78867              18.18707              23.71688
   AR                    3.28389              25.50589              15.10702
   AR                   74.73397              47.42036              50.73609
   AR                  102.05098              21.76353              12.82241
   AR                  100.98958               1.65254              23.82303
   AR                   59.54649               7.57129              50.75007
   AR                   30.51571              19.43637              14.13010
   AR                   25.28105              20.26024              14.38960
   AR                   97.98113              29.33481              42.21332
   AR                   79.26141              21.45637              52.56334
   AR                    3.09941               6.13817              18.88467
   AR                  101.09766              41.92653              24.61011
   AR                   77.95852              23.38696              12.66270
   AR                   75.86277              36.52132              36.90752
   AR                  100.70830              18.86791              33.83594
   AR                   65.56927              17.47226               0.79776
   AR                   99.36854              52.62834              28.90232
   AR                   72.39415              46.03018              23.49187
   AR                   33.74774               8.40098              13.16249
   AR                   62.31719               0.45652              20.99102
   AR                  104.16778              37.35365              18.34043
   AR                  105.63786               1.53364              20.91846
   AR                   22.47518               1.78634              10.38052
   AR                   82.63019              47.14995              43.78950
   AR                   78.91950               7.48768              52.02937
   AR                   56.74154              39.62231              30.22333
   AR                   52.28276               8.97337              41.66644
   AR                   67.92289              23.07504              19.42820
   AR                   31.13389               1.14262              15.39810
   AR                   99.74477              42.62629               3.01041
   AR                   99.48417              20.45648              44.08398
   AR                   26.40127              34.26332               5.38980
   AR                   79.61475              49.54895              15.96759
   AR                   95.73907               3.90491              29.47015
   AR                   70.80677              14.22664               7.87316
   AR                   88.87172              23.79624              48.27013
   AR                   11.09123              21.58003               3.48042
   AR                   93.84176               6.92850              28.08781
   AR                   52.35716              34.31873               1.50768
   AR                   16.30562              30.02444               1.18057
   AR                   53.29164              46.01559               2.34661
   AR                   63.98596               0.10063              47.79260
   AR                   23.96705              16.21647              25.88607
   AR                   93.22115               2.21743               3.30684
   AR                   57.67330               6.04831              47.10370
   AR                   61.31310              22.97494               5.71390
   AR                   89.25591              33.30738              12.32494
   AR                    2.29962              24.49182              33.31754
   AR                    9.39602              23.23953              29.84702
   AR                   13.70628              20.18256              32.36975
   AR                   98.02509              13.87182               5.04604
   AR                   74.85746              30.55386              41.41515
   AR                   24.73141               7.08230              16.33739
   AR                    5.89003              21.84080               3.07899
   AR                   92.41103              53.26068              30.32824
   AR                   82.54739              36.35697              26.85541
   AR                  105.17205              26.08935               6.98618
   AR                   62.02394               5.21072              39.04815
   AR                   65.76229              30.30996              42.08467
   AR                  102.20183              22.90665              28.68173
   AR                   76.89658               6.56568              35.31572
   AR                    3.48999              18.54334              26.21805
   AR                   73.65887              31.58377               9.44595
   AR                   59.48459               5.85363               4.92725
   AR                   58.06287              11.71980              18.09884
   AR                   80.54196               8.43228              48.08510
   AR                   95.70407              27.25221              32.01527
   AR                   53.42158              11.18283              32.70126
