       321
            33.91636            58.69077
   AR                  105.98596              22.44946               6.56667
   AR                   81.99697              19.38335               1.87282
   AR                   51.87591              42.40457              50.87062
   AR                   83.19626              41.15451              22.92635
   AR                   65.95085               1.73357              21.09963
   AR                  100.64575              22.34218              43.88002
   AR                  107.17581               7.23595              48.25013
   AR                   75.40963              26.23762              14.57805
   AR                   81.96801              38.26296              51.50312
   AR                   52.35027              13.41751              10.62757
   AR                   57.61673               1.80266              35.47212
   AR                   51.18583              39.63261              35.21251
   AR                   99.50005              51.40169              29.33606
   AR                   21.82430              30.18137              27.74046
   AR                   87.11595              12.45306              11.31288
   AR                   59.52887              24.67560              47.23065
   AR                   65.97643              20.61365              12.48074
   AR                   79.78879              54.08808              33.38771
   AR                   57.98672              17.99210              24.78547
   AR                   83.78315              43.07056              32.50238
   AR                  107.55886              45.19611              20.30538
   AR                   74.93591              40.93113              20.91517
   AR                   70.86299              56.51405              22.00098
   AR                    2.25975               9.96747              11.23883
   AR                   70.69356              45.91577              29.86719
   AR                   84.42060              47.44321              53.63248
   AR                   66.88491               1.28494               3.31304
   AR                   62.19056              34.03596              56.12587
   AR                   70.76282              19.33165               1.20339
   AR                   77.42978              25.67624              32.37964
   AR                   57.70922               0.22397              58.07581
   AR                   75.40398              19.35108              20.62737
   AR                   54.75153              47.10495               6.45423
   AR                   70.67215              16.31407              52.83158
   AR                   99.30308              32.09913              56.92931
   AR                  108.04297              36.30962              27.21392
   AR                   67.72659              39.64700              23.90546
   AR                  108.73298               3.14044              20.21835
   AR                   59.25517              45.79063              46.86680
   AR                   60.91760              11.28508              16.00338
   AR                  105.32443              20.07776              57.45610
   AR                   78.54302              26.21976              23.62975
   AR                   87.39237              21.12475              55.51456
   AR                  107.38486              27.61624              50.89652
   AR                   90.26016              28.26362              29.39859
   AR                  109.22498              39.84063              26.67870
   AR                   63.10191              21.97473               4.46993
   AR                   58.38061              44.18445              21.71189
   AR                   87.30101              42.67849               3.11724
   AR                   87.62106              52.31111              46.43293
   AR                   27.65751               0.14140              12.32059
   AR                   77.86498              21.17035              47.88657
   AR                   67.03386              20.01816              20.23115
   AR                   68.21531              31.31379              57.36730
   AR                   62.55554              36.39788              38.29893
   AR                   91.33510              10.53523               3.34068
   AR                   96.03086              57.55013              47.61811
   AR                   53.57744              53.95013              12.33228
   AR                  108.23430              41.56610               1.94075
   AR                   73.66555               7.62566              53.84986
   AR                   78.31911              21.46843              52.25254
   AR                   67.66757              42.43464              47.13822
   AR                   78.04170               7.47890              56.98891
   AR                    4.00880               2.88026              12.48103
   AR                   74.44762              49.93094              18.64647
   AR                   82.44468              54.65392              47.36519
   AR                   82.01324              37.00141              22.92247
   AR                  108.26069              15.74619              15.98088
   AR                   96.47614              43.71124              45.69341
   AR                   80.57197              15.67966              20.01440
   AR                   87.99700              26.62921              32.20224
   AR                   79.82679               4.32994              14.67942
   AR                   19.63097              26.13039              18.36610
   AR                   80.09039              48.38167              12.92635
   AR                   32.83063              17.32248              11.41551
   AR                   98.17912               7.50755              41.30937
   AR                   13.91349               8.26084              19.66631
   AR                   76.93807              27.90306              10.21365
   AR                   31.41998              25.94130              20.01164
   AR                   20.23418              21.90406               6.77515
   AR                   76.75026              29.64975              35.11718
   AR                   71.84673               4.15542              23.06715
   AR                   75.28560              13.55437              56.34864
   AR                   76.80431              37.95558              22.27219
   AR                   15.82040              16.36864              29.35417
   AR                   54.23932              51.90060              23.58730
   AR                   51.96420               8.81254              35.06418
   AR                  103.53778              37.80483              49.67098
   AR                   62.39174              42.80369              13.46973
   AR                   89.03989              21.19237              40.90959
   AR                   74.52805              18.66291               6.24994
   AR                   63.78468              52.13514              48.88583
   AR                   98.70152              17.38703              44.99579
   AR                   58.52135              35.13137              18.23205
   AR                   66.01712              34.79346              14.93744
   AR                   51.61851              43.30129               0.04890
   AR                   54.18602              19.22536               5.08814
   AR                   33.76358              20.04627              15.43808
   AR                   72.07106              37.19922               4.14400
   AR                   91.76538              13.48138              29.10072 FRACTIONAL
   AR                   77.78079               2.55601              20.08316
   AR                   99.76775              50.70166              40.05784
   AR                   85.10642              58.10898              23.56333
   AR                  106.79040              40.16583               5.96102
   AR                   82.83936               4.80624              21.31733
   AR                   93.23252              23.59594              14.72092
   AR                  102.96258              15.46967              21.78206
   AR                   61.38146               6.32650              38.37396
   AR                   55.42211              49.72109              19.46196
   AR                   65.14105              44.67874               8.70156
   AR                   99.51515              42.49438              48.93187
   AR                   63.97351               1.66821              15.38424
   AR                  101.10298              17.20286              39.78716
   AR                   59.96135              55.54268              16.59053
   AR                   77.07793              41.64263              50.41607
   AR                   93.06336               4.84004              37.43291
   AR                  109.48496              17.31331              22.48153
   AR                    1.54793              21.53992              23.79557
   AR                   64.87905              55.17031              23.69966
   AR                    6.37620              10.04244               6.94764
   AR                   80.84075              14.44132              35.48825
   AR                   31.69014              20.41650               5.24611
   AR                   51.39012              58.47588              37.58233
   AR                   58.30496              55.53555              21.75068
   AR                  100.26623              28.50721              37.86634
   AR                  102.50756              25.63804              32.82740
   AR                   65.59505              18.26235              22.74689
   AR                   96.68081               9.30094              22.55510
   AR                   65.20886               6.89218              25.70181
   AR                   80.03282              24.38138              26.27821
   AR                  106.20517              53.11176              41.22470
   AR                   65.56166               7.06170              21.79707
   AR                  106.14564              51.16165              21.61927
   AR                  103.58503              55.50755               5.12640
   AR                  106.27715               4.15876              13.39697
   AR                   86.77483              49.91486              27.36992
   AR                   82.60340              48.36813              27.83514
   AR                   84.97926              20.14459              58.43120
   AR                   82.86998              14.25597              30.37506
   AR                   58.08455              38.18746               5.75935
   AR                   60.33925              33.72336              46.51678
   AR                   21.34033              16.46563              15.94797
   AR                   16.27388              32.95997               3.12008
   AR                    7.47535               6.33218              25.10424
   AR                    8.40492               3.75329               0.84117
   AR                   74.15352              26.93575              30.15727
   AR                   53.23338              27.48551              30.59341
   AR                   85.34228              48.96015              42.02258
   AR                   12.85356               0.55212               3.27779
   AR                    2.73752               6.95189              24.74076
   AR                   65.64651              34.22142              24.53004
   AR                   71.12218              13.23530               1.93969
   AR                   86.14033              58.02704              33.45382
   AR                   65.63692              39.83939              38.47082
   AR                   64.64606              11.13082               3.72552
   AR                    3.96609              26.50991              10.96005
   AR                    1.07729               2.32096               9.63927
   AR                   78.43672              58.00554              33.43792
   AR                   79.37496               1.97084               1.45117
   AR                    6.35787              16.59224               2.43463
   AR                   58.55780               2.97913               8.03131
   AR                   85.60979               2.72699              55.24287
   AR                   67.07131              18.17401              16.56611
   AR                   96.41852              48.61419              45.52801
   AR                   62.73833              38.72389              14.00426
   AR                   83.18727              21.21222               9.21430
   AR                  104.33574              31.28453              17.74715
   AR                   58.09082              19.82355              39.24386
   AR                   82.92726              48.33275               2.17995
   AR                   71.46279               9.09701              39.54293
   AR                  106.94194              42.40595              16.82329
   AR                   21.09873              26.09492              26.55476
   AR                   70.89166              32.35149              35.99744
   AR                   63.16517              43.86982              35.06325
   AR                   93.03383              15.43450              50.50010
   AR                   70.24594              47.65919              37.52608
   AR                  104.89080              35.34622              36.57849
   AR                   98.91039               1.06360              38.64971
   AR                   99.09073               6.15264              16.27555
   AR                   95.01771              35.59489              41.81607
   AR                    5.07278              10.53882              13.75040
   AR                   19.55152              31.60877               2.11456
   AR                  108.88101              52.64377              26.93458
   AR                   89.27668              32.88789              14.32777
   AR                   78.51130               2.32600              41.56243
   AR                   97.87919               9.71607              33.01323
   AR                   11.32233              22.06903              14.27035
   AR                   86.16119              39.21033              23.54249
   AR                   93.65404              40.67875              19.36878
   AR                   87.24137               3.80721              49.77954
   AR                   89.59787              41.69656              26.23791
   AR                   68.66320              16.47190              47.33488
   AR                   66.79145              23.40493              27.64224
   AR                   73.15739              50.75808              57.33809
   AR                   51.14981              46.20073              36.14332
   AR                   69.04853              10.07742              24.08440
   AR                   66.47629              41.81730              42.69868
   AR                  107.87850              23.06975              27.04270
   AR                   71.91995              45.16021              39.40425
   AR                  100.57842              34.83316              54.19299
   AR                   73.06591              50.55823              25.12865
   AR                   72.79803              22.95180              39.44867
   AR                   76.49125              18.64850              28.55631
   AR                    0.75891               5.36791              22.02278
   AR                   89.67619              24.42413               0.62664
   AR                   54.37521              57.33788              39.02193
   AR                   76.70155              11.52003              19.83067
   AR                   99.99604              38.40140              51.60281
   AR                   17.58799               7.62065              18.30537
   AR                   59.74402              20.36615               3.13425
   AR                   30.90971               5.35323              21.12169
   AR                   74.60920              26.27544               1.00388
   AR                   59.81790              29.90582              48.80825
   AR                   91.11961              53.10371              57.26911
   AR                   95.36449              18.24691              42.61638
   AR                   51.23376              50.35440              41.89819
   AR                   54.85589              47.01143              45.05753
   AR                   98.91619              47.88238              31.96372
   AR                   94.07757              38.50684              13.89572
   AR                   13.73329               9.52519              29.30679
   AR                   50.99511              25.36460              29.10601
   AR                  101.87607              48.80436               1.05037
   AR                   93.15132              38.18439              49.81252
   AR                   98.78935              16.13192              51.17244
   AR                   51.81226              48.05864               2.65457
   AR                   89.82871              54.83299              48.29063
   AR                   63.97081               8.44720              42.51420
   AR                   76.54250               1.46435              27.76698
   AR                   17.00719              27.02718              26.21812
   AR                   88.63996              17.04383              12.65437
   AR                   56.08098              40.00081               1.66493
   AR                   97.03221               7.29075              19.49107
   AR                  108.95960              27.36005              20.64080
   AR                   51.06510              46.09627              26.94856
   AR                   62.49691              20.90200              13.81476
   AR                   59.46859              32.25705              21.06254
   AR                   52.80552              54.82100              25.55791
   AR                   68.51183              14.57086              16.93310
   AR                   80.26448              42.25940               7.94315
   AR                   99.89540              32.85862              37.89031
   AR                   22.08987               3.15312              17.86612
   AR                   58.85366              13.65305              42.65987
   AR                   61.95750              49.59822              10.61825
   AR                   18.66002              12.69883              22.67885
   AR                   82.64996              27.60341              25.70136
   AR                  100.91059              48.28921              56.27692
   AR                   87.32011              38.98692              50.10476
   AR                   60.18071               0.92562              10.32265
   AR                   91.44318              35.17164              32.61748
   AR                   85.72333              11.46867              24.93925
   AR                   23.70165              21.91999               4.85522
   AR                   17.02883              24.17670              23.40355
   AR                  107.56694              27.06513              43.16283
   AR                   13.10190              31.43971               5.81518
   AR                   68.05371              54.47246              19.23397
   AR                  100.77975              19.25415              47.62392
   AR                   61.96253              17.87017              40.14839
   AR                   76.22926              55.49771              38.17652
   AR                   58.06630              34.83372              24.76973
   AR                   75.71752               2.49888              14.83116
   AR                   91.69733              56.95270              37.40649
   AR                  107.01045              32.13949              22.46716
   AR                   84.83455              17.22231              46.82637
   AR                   85.82269               4.48055              16.67260
   AR                   54.47702              41.04889              28.87370
   AR                   97.84816              34.58491              49.58198
   AR                   10.00934              31.64433              14.51694
   AR                   74.35650              45.35295               0.94661
   AR                   64.81131              38.83394               7.91323
   AR                   73.58201              33.92290              40.59890
   AR                   52.83783              14.23929              49.61634
   AR                   53.30171              26.78359              19.53555
   AR                  100.54359              42.84301              44.47111
   AR                   14.88359              10.14092              26.40701
   AR                   10.05911              31.87989               2.92773
   AR                   69.55201              37.05979              30.41005
   AR                   70.96352              33.77758              56.52852
   AR                   99.54389              11.65466              19.79350
   AR                   68.98429               2.14920              49.41364
   AR                  103.44778               2.14683               6.41835
   AR                  102.32896              54.53195              46.89407
   AR                  106.75335              44.15146              55.79561
   AR                   83.05531              45.12509              37.00058
   AR                   60.51565              39.36540              46.86503
   AR                   56.93906              36.89911              39.28303
   AR                   53.41686               3.48895              29.03510
   AR                   82.15646              57.69376              52.20406
   AR                   63.35806              19.89684              46.81184
   AR                   53.13453              34.17881               9.31516
   AR                   67.93854              34.27012               5.36486
   AR                  108.72469              19.95621               1.20682
   AR                   54.00449              36.21267              12.72869
   AR                   56.22153              50.59869              33.99144
   AR                   73.32379              19.89837              16.61406
   AR                   61.38212              44.51323              28.33969
   AR                   54.73718              46.96923              21.56758
   AR                   89.20854              46.78508              26.07846
   AR                   93.45014              47.35467              33.11720
   AR                   79.80259              27.52349              56.07526
   AR                   93.31863              11.96151              22.96609
   AR                   64.35780              21.41526              42.91569
   AR                   87.77170              23.26614              15.76207
   AR                   91.53648              26.32476              20.19107
   AR                   20.80359              13.80014              25.71695
   AR                   87.28977              49.97588              39.24877
   AR                   59.94245              33.41215               3.14479
   AR                   74.66377              10.00149              17.85328
   AR                   97.19311              13.31113              31.54060
   AR                  106.99377               0.20667              58.45825
   AR                   88.14273              31.19809              26.25139
   AR                   99.19735              56.21574               3.77757
   AR                   90.47940              48.22093              22.89625
   AR                   56.94891              17.61431              21.24600
   AR                   15.78202              13.74114              25.91497
   AR                  100.72122              33.45230               2.95002
   AR                   72.97031               3.84751              50.43730
   AR                  109.31052              16.98220              28.90650
   AR                    0.18972              10.59668              19.43686
   AR                   82.13512              32.28376              52.67858
   AR                   96.50662              10.78970              46.02238
   AR                   30.06947              16.22371              24.69407
