       461
            35.27699            48.92325
   AR                   99.99506              45.88909              45.65940
   AR                   70.36960              38.12944              15.89135
   AR                   63.80099              34.74202              31.56178
   AR                   66.42480              46.43436              10.87795
   AR                   67.03245              45.86800              29.33978
   AR                   88.68223              25.34654               9.10338
   AR                   28.27598               2.38837              28.70631
   AR                   83.99971              47.93547              13.65656
   AR                   88.48718               3.19748              13.16427
   AR                   55.90766               9.22258              38.05526
   AR                   99.22773              39.38880              30.49918
   AR                   98.60264              32.23518              20.44424
   AR                    3.20844              20.33588               9.63091
   AR                   77.87919              27.81453              31.76087
   AR                    2.28348              23.81818              11.63802
   AR                   89.61355              42.49699              27.67486
   AR                   91.38267              30.05806              15.69820
   AR                   56.86380              33.41021               1.80254
   AR                   86.84582              37.03012               8.06436
   AR                   56.37085              23.40985              23.40226
   AR                   56.58279              32.60764              22.68071
   AR                   81.48759              35.75400              33.82838
   AR                   57.78211              35.15248               4.37563
   AR                   74.13654               5.21896              37.28456
   AR                    8.07602              26.67543              28.23292
   AR                   73.48378              16.07123              37.44825
   AR                   65.14207              42.15659              32.30375
   AR                   80.69705              41.73693              24.48077
   AR                   64.25495              39.56070              16.93294
   AR                   74.66086              28.09438              40.58675
   AR                   32.77312              14.42024              16.26965
   AR                   90.35623              14.16631               6.12153
   AR                   77.22143              32.83697              32.66788
   AR                   72.27141              39.70518              35.16620
   AR                    9.30253              16.26325              31.11702
   AR                   32.18405              21.16409              27.98355
   AR                  100.27068              27.44255               6.92803
   AR                    4.93745              27.96079              29.10420
   AR                   87.30110              35.72390              38.60649
   AR                   32.38552              32.24967              31.49350
   AR                   97.97252              43.46732              19.99350
   AR                    4.02509              25.19045              13.94347
   AR                   89.50997              13.90999              38.94387
   AR                   78.57683              35.42743              35.93902
   AR                    8.73826               6.57547              19.68894
   AR                   78.39731              27.59999              42.00595
   AR                   73.36807               4.65200              29.27238
   AR                   87.32658              16.59922              36.15744
   AR                   60.28435              27.81839              23.58361
   AR                   80.87531              30.88138              21.62490
   AR                   79.93304               3.88080              20.60527
   AR                    6.77121               2.76355              27.91169
   AR                   21.81065              23.70070              33.02045
   AR                   95.64403              25.85483              26.32501
   AR                   96.41544              46.99815               6.36470
   AR                   80.01960              28.89685               9.04802
   AR                  101.23327               3.44197              34.62033
   AR                   76.59883              44.31182              33.74305
   AR                    3.06284              23.05929              33.51712
   AR                   71.23065              18.87788              32.91010
   AR                   56.05140              43.43531              13.35365
   AR                   89.56862               4.89830               7.66476
   AR                    4.00109               7.18989              34.76762
   AR                   56.85939              10.47428               8.78062
   AR                   28.53557               1.62079               9.44351
   AR                   20.95277              15.57963              24.04039
   AR                   60.69600              47.08412              39.44594
   AR                   14.11946               1.63766              20.21414
   AR                   70.41119               2.70610              33.99975
   AR                   78.97548               3.77651              14.99770
   AR                   55.13546              40.49947              30.42879
   AR                   95.39291               0.42481              23.06324
   AR                   14.54485               4.30136               2.54182
   AR                   55.91285              31.60642               7.27106
   AR                   70.29181              21.69376               7.91976
   AR                   62.13641              38.07290               0.35876
   AR                   61.62374               3.68796              38.91853
   AR                   99.78959              36.76406              21.11320
   AR                   80.43319              39.13849              30.05923
   AR                   57.48326              10.57427              41.44757
   AR                   91.76740              47.90497              35.63965
   AR                   73.79438              31.47582               7.76163
   AR                   31.96342              35.14904              34.70395
   AR                   81.51676              26.09631              16.12362
   AR                   34.17737              26.84406              10.16258
   AR                   63.24508              44.03691              41.08717
   AR                   94.97327              26.56110              38.24677
   AR                   26.53528              15.79514              24.14264
   AR                   34.86964              18.40382              27.09359
   AR                   15.51620              22.43885              29.42869
   AR                   22.98967               4.93525               5.56835
   AR                   10.14548               0.67859              31.86503
   AR                   93.59578              34.66249              14.20283
   AR                   67.16544              29.23326              30.13221
   AR                   80.39983              43.58602               5.39693
   AR                  101.20487              41.41870              27.71154
   AR                   76.91678              23.63778               9.74813
   AR                   27.62647              20.50835              11.69984
   AR                   60.18906              19.41728              26.54091
   AR                   60.17545               4.45931               2.71537
   AR                  100.61040              26.53873              27.43211
   AR                   89.03852              40.22632               4.24894
   AR                   30.33468               1.38707               4.27049
   AR                    7.01831              17.21942              18.75461
   AR                   54.16488              38.54009              46.04084
   AR                   64.27325              48.91645              22.45289
   AR                    7.89252              16.52323              10.13905
   AR                   12.98180              29.52001              21.46973
   AR                   74.81115              31.00107              26.93705
   AR                   59.43748               2.78510              18.71617
   AR                   12.34194              17.40600              11.48258
   AR                   53.96871              22.17111              35.09999
   AR                   98.00506              35.51269               4.34074
   AR                   74.51997              46.64921              31.80935
   AR                   65.23738              40.64919              13.54487
   AR                   68.20639              13.32238              15.73632
   AR                   54.70477              25.09263              43.61555
   AR                   18.70210              24.10477               1.00376
   AR                   26.95633              19.71491              31.57757
   AR                   96.40991              17.97895              17.06440
   AR                   62.80737               1.09114              18.93111
   AR                   85.23800              13.40293              42.03040
   AR                   95.12931              29.99204              38.65189
   AR                   66.10511               5.06515              15.22885
   AR                   69.08464               2.40762              15.99360
   AR                   68.91040              27.28999              45.04178
   AR                   29.59966              26.91805              23.45393
   AR                  100.80783              38.18357               8.38014
   AR                   23.39561              17.69822              10.83393
   AR                   96.26970              45.96663               1.86265 FRACTIONAL
   AR                   78.21206               8.19796              22.27156
   AR                   66.03171               3.90486              23.08152
   AR                   83.95929              11.74516              18.73788
   AR                   98.37684              29.31374               4.00338
   AR                   89.81720              40.08845              42.01400
   AR                    5.17154               4.85695               2.37697
   AR                   32.96286              33.17014               7.06680
   AR                   98.58296              30.12836              35.42920
   AR                   75.04860              45.46147              13.96603
   AR                   24.60119               3.11223              28.76891
   AR                    7.14024              24.41030               1.00616
   AR                   78.13618              15.40512              36.99569
   AR                   99.72885               8.91555              31.41903
   AR                   87.87183              25.64025               0.97240
   AR                   14.67971               0.11655              33.03550
   AR                   91.97942              28.70779              27.22699
   AR                   67.44932              21.80357              41.84424
   AR                   13.17097              10.37560              31.53654
   AR                   21.96948              32.62820              11.40898
   AR                   82.08802              26.71868              25.28550
   AR                   71.02648              42.61715              20.17228
   AR                   10.89071              34.57435              27.56492
   AR                    9.15350              27.71050              11.37988
   AR                   33.45706               0.18171              28.75272
   AR                   70.05991              47.74380              35.34445
   AR                   99.68278              36.45491              11.52350
   AR                   65.73897              38.88141              43.40112
   AR                   63.06709              47.39637              11.61012
   AR                   92.37240               2.62621              16.31798
   AR                   14.73725               6.79803              26.28222
   AR                   80.44716              37.08458              46.39310
   AR                   76.73701              15.37008              21.64372
   AR                   22.48204              30.00024               8.59157
   AR                   27.27618              24.35727              32.53099
   AR                   99.84249              43.09256               5.09377
   AR                   73.22392              24.85707              37.13503
   AR                   23.82326               9.94652              11.11336
   AR                   90.53671              39.78148              37.07548
   AR                   78.81971              37.27378              27.86684
   AR                   63.39160              23.73416              36.54156
   AR                   92.19284              29.93009              44.63533
   AR                   77.95950              13.38394              42.20902
   AR                   65.42501              10.02402              13.41125
   AR                   30.87533              12.08134              27.72823
   AR                    4.25150              24.97979               3.39690
   AR                    1.56034              31.24880              19.77076
   AR                   74.85796              35.64667               8.35092
   AR                   66.93007              18.19280              19.75666
   AR                    4.66287              27.04489               0.28711
   AR                   52.92139              34.13526               8.63208
   AR                   89.28952              26.34565              41.18685
   AR                   61.72469              12.34162              46.09042
   AR                   28.63877              15.85663              33.79856
   AR                   93.50060              42.15554              26.17715
   AR                   27.40795              15.38646              15.64299
   AR                    7.24924              33.89449              31.91704
   AR                   74.83384              29.45718              45.51848
   AR                   67.80079              20.47806              25.21583
   AR                   89.12042              26.41064              46.46654
   AR                    0.93842               7.55760              16.26074
   AR                   31.11610              18.56093               1.34253
   AR                   82.48113              15.14492               8.60477
   AR                   87.68880              28.02551               7.89449
   AR                    3.34035              17.85277              18.79614
   AR                   74.76060              46.47502               8.35807
   AR                   70.16405              35.50616              11.49908
   AR                   65.69650              40.65324              47.20602
   AR                   56.46419              46.13169               0.49529
   AR                   16.17877              28.58216              30.12015
   AR                   67.81628              18.52285              34.08317
   AR                   66.75391              35.26158               8.33628
   AR                   85.21183              36.60989               1.35744
   AR                   18.20605               2.68595              25.36254
   AR                   85.17211               6.40546              20.11941
   AR                   85.14878              36.31729              35.09994
   AR                   82.23650              30.69355              15.95690
   AR                   66.94517              48.63001               0.52800
   AR                   21.15621               2.62871              17.39547
   AR                   25.54851              25.30126              23.71070
   AR                   56.97021              25.62686              16.89467
   AR                   12.62247              19.49051               6.02015
   AR                   99.33537              43.72750              24.48230
   AR                   86.72096              47.47280              23.59666
   AR                   34.35627               6.71223              22.71762
   AR                   92.83313              11.99946              23.30416
   AR                   75.51031              38.21491              42.33550
   AR                    1.47485              22.56953               6.85459
   AR                   61.71795              28.06630              32.34500
   AR                   92.90550               7.52506               6.28293
   AR                    1.61923              30.56708              24.95506
   AR                   87.94690              20.33074              35.83152
   AR                   54.95512              45.94169              22.70462
   AR                   34.60947              33.94734              18.84714
   AR                   53.25504              19.96831              24.34140
   AR                    6.29848              29.17098              20.60109
   AR                   19.18851              12.71859              24.42779
   AR                  101.33608              34.54166              46.43218
   AR                    2.13798               8.88701              24.41709
   AR                   66.25291              34.53741              35.02062
   AR                   63.94941              45.47581              48.69618
   AR                   86.68645              48.92032              20.04646
   AR                   78.86508              14.51011              47.87272
   AR                   88.00880              47.72873              27.53277
   AR                   29.27927              16.31450               3.95267
   AR                   20.79739               0.48083              12.08381
   AR                   90.16519               8.56216              23.13892
   AR                   98.56052              41.42726              36.76796
   AR                   28.31145              17.71462              28.03418
   AR                    5.35459              12.12282               5.18659
   AR                    6.86202              32.86783               8.14492
   AR                    5.57280               6.46035              29.50502
   AR                   64.13324               6.98057              29.69183
   AR                   72.60657              44.93933              24.04779
   AR                   13.01662               5.28126              29.59347
   AR                   21.44873              32.01888               1.14984
   AR                   89.56825              10.25129               8.88620
   AR                   18.71991              32.46969               9.87522
   AR                   65.67249              23.25753               9.53370
   AR                   66.57797              26.06667              17.02251
   AR                   97.85895              19.50798               3.35088
   AR                   70.41264              32.28884              24.66042
   AR                   64.38665              19.29040              21.27767
   AR                    5.52383              29.20947              16.82074
   AR                   21.68449              14.66274              14.97702
   AR                   58.64144               6.61175              20.26064
   AR                   99.79573               3.47044              42.30761
   AR                   87.02327              13.02455              23.88875
   AR                   19.54398              12.77066              32.13245
   AR                   10.51014              20.46334              26.65853
   AR                    9.97004              16.25904              26.86831
   AR                   15.29017               8.44130              29.43469
   AR                   95.83564              43.38949               5.93132
   AR                   85.57171              21.13377              14.58113
   AR                   94.38373              36.84225               6.14144
   AR                   31.94103              28.35969              20.56669
   AR                   53.48032              32.93292              23.55874
   AR                   11.85854               2.72236              35.06913
   AR                   25.48968              12.47412               8.69529
   AR                   58.43612               6.85861              36.90610
   AR                   73.05111              41.38186              31.05206
   AR                   67.79932              28.45929               0.46810
   AR                   28.18388              34.97586              25.19020
   AR                   93.37279              15.10884              12.36676
   AR                   18.28385              27.54879               5.66486
   AR                   93.45046              48.16056              32.81628
   AR                    2.82893              32.33996              10.08786
   AR                   76.95388              38.26458              16.52199
   AR                    7.14399              34.88319              14.56206
   AR                   97.41490              22.50418              33.11627
   AR                   82.40421              47.48264              28.00346
   AR                   75.22276              41.29821              37.88918
   AR                   70.24944              42.37851              27.95624
   AR                   92.52125              45.42631              38.73520
   AR                   80.23228              10.66916              48.75421
   AR                   75.62200              48.05185              36.22738
   AR                  100.44973              33.15009               5.29082
   AR                   60.46597              34.24374              34.65965
   AR                   67.30096              28.32341               9.68909
   AR                   53.64133              24.57518              48.17490
   AR                   66.08108               4.75040               4.40670
   AR                   30.41342              18.45960              31.49632
   AR                   53.67567              44.86000              27.79396
   AR                   70.82263              11.64481              14.87143
   AR                   21.35929              11.19643              29.40929
   AR                   61.31960              34.40980               3.32000
   AR                   53.12443              29.44543              34.17297
   AR                   82.24577              31.61849              24.92717
   AR                   57.07594              16.87111              19.64453
   AR                   95.06241              36.71231              27.50415
   AR                   83.93238              47.90827              32.87298
   AR                   77.76981              25.78617              19.25171
   AR                   63.47681              22.95879              13.85671
   AR                   76.33923               5.52912               3.54874
   AR                   16.30703               5.13568              23.59324
   AR                   63.45906              13.17437              33.91334
   AR                   17.63435               3.95681              28.97344
   AR                   90.17996              44.24520              33.77594
   AR                   98.60911              45.81028              30.93988
   AR                   73.07170              19.56590              18.10929
   AR                   91.65250              37.12564              41.32180
   AR                   90.90380              37.12468               6.42029
   AR                   84.22238              17.21534               2.89985
   AR                   32.34800               9.86970              12.96510
   AR                   75.00858              24.37460              25.13085
   AR                   79.68935              11.49643              15.50933
   AR                    0.89898               7.99089              12.52362
   AR                   99.32003              24.63693               2.41373
   AR                   54.92409              27.67947              13.19103
   AR                   29.07988               8.39457               6.53716
   AR                   70.84867              31.67749              42.10420
   AR                   92.86983              12.56976              33.76970
   AR                   18.26588              27.69833               1.49177
   AR                   98.11139              13.47740               5.99361
   AR                   14.06174               5.99102              19.89254
   AR                   70.68501              28.76157              26.64540
   AR                   25.52472              32.79348               1.84836
   AR                   74.69624              13.94157              24.27555
   AR                   16.33351              10.12712              33.39577
   AR                   20.99246              10.86369              34.65660
   AR                   73.85367               6.18400              18.83189
   AR                   82.02573              48.85192              21.03283
   AR                  100.41520              23.93763              41.87219
   AR                   57.55527              47.51135               5.33231
   AR                   95.66888              31.48574              29.39555
   AR                   58.79199              27.75553               2.95510
   AR                   22.57226              28.39896               4.85979
   AR                   27.16993              32.92291              16.45180
   AR                   68.01640              13.77297              34.76065
   AR                   27.69834              13.26431              30.92218
   AR                   99.79617               4.89155              11.90837
   AR                   70.83063               0.11529              10.04188
   AR                   62.21247              18.20586              31.88592
   AR                   64.74994              35.25386              25.10083
   AR                   83.08802              36.70429              16.50003
   AR                   71.96674              40.10915              26.47627
   AR                   65.58947              22.38852              18.63182
   AR                   68.82331              47.87512              17.60385
   AR                   68.53778              45.57759              48.70283
   AR                   16.89504              31.26632              34.88582
   AR                   74.51826              20.99625              14.88027
   AR                   71.18066              40.81427               5.18102
   AR                  101.46430              30.23304               0.48610
   AR                   16.76861              15.86799              32.23225
   AR                   67.77811               1.00778              29.50824
   AR                   78.98182              39.01603               6.50145
   AR                   34.73329              16.79403              16.46770
   AR                   33.90163              18.88168              20.26888
   AR                   82.59335              36.07884              11.83177
   AR                   96.20168              10.03591              12.80000
   AR                    2.91226               3.22733               6.38580
   AR                   68.70034              39.79730               1.17398
   AR                   65.34915              22.81562               0.26457
   AR                   12.24528               9.21016              34.72985
   AR                   79.97155              37.96924               3.13293
   AR                   60.23853              35.52494              21.23560
   AR                   13.19135              17.27155              15.88234
   AR                   93.05210              39.50384               4.08409
   AR                   20.42578              14.87821               5.25582
   AR                   72.97977              36.62715              32.46120
   AR                   34.30552               9.99363              23.59508
   AR                   98.38485              23.94365              46.41979
   AR                   92.00992              29.76765              11.91434
   AR                   61.27678              22.40532              18.89018
   AR                   67.21719              23.55571               3.06797
   AR                   62.72570               6.61210              41.73449
   AR                   82.92629              28.27430              12.51840
   AR                   75.46100              45.02607              43.09257
   AR                   94.43594              33.18267               4.79176
   AR                   82.19215              28.52490               0.10047
   AR                   53.81591              37.37721              24.76170
   AR                   24.96977              32.61395              28.27324
   AR                   94.23471              46.39308              45.59246
   AR                   91.14559              33.88741               8.79410
   AR                   63.69880              18.40260              12.90859
   AR                   84.02089              17.83175              43.68082
   AR                   81.82403              27.17443              45.55432
   AR                   93.30798              29.22886              36.44359
   AR                   53.22733               1.10253               6.47696
   AR                   25.21148              14.24238              35.06242
   AR                   59.82551              35.85864              38.41687
   AR                   25.68383               2.59009              13.99249
   AR                   82.52404              35.59857               4.41647
   AR                   27.56752              23.05275              21.74470
   AR                   71.58207              24.44176              47.41245
   AR                   91.01157              25.15970              27.83215
   AR                   76.74323              30.74982              21.86894
   AR                   78.89731              38.81262              40.66393
   AR                   15.06822              32.16192              12.27304
   AR                   83.46147              11.17800               6.70221
   AR                   79.17128               8.33380              32.64846
   AR                   14.68210              26.43361              26.74618
   AR                    4.62872              20.61240              22.44918
   AR                  100.97957              17.13601              45.04267
   AR                    0.52673              27.56633               0.52319
   AR                    3.13822              23.70088              24.28004
   AR                   98.85732              23.67818              20.22352
   AR                   23.79570              29.93330              31.83124
   AR                   97.24520               0.22906              30.93275
   AR                   82.60595              24.92570               8.41894
   AR                   85.58974              16.05074              47.17731
   AR                   73.95462              41.22930              14.71837
   AR                   92.91540              26.94911              16.67505
   AR                   18.32802              16.14464              35.25293
   AR                   67.21019               9.64300              33.74309
   AR                   67.84195              37.69279               5.88401
   AR                   72.62787              12.76050               4.32779
   AR                   30.47868              32.84406               2.80495
   AR                   55.89172              22.40515               4.56764
   AR                    6.12433              24.46106              31.40449
   AR                   22.29795              20.19277               8.45967
   AR                   83.56422              19.94984              34.60099
   AR                   72.67510              32.65648              29.39268
   AR                   75.40156              45.16099              28.53320
   AR                   84.14060               6.10054               4.25150
   AR                   11.71068              27.54126               2.57398
   AR                   24.08571               5.43829              15.67979
   AR                   83.87975              15.45746              16.19877
   AR                   89.58086              18.80415              40.30052
   AR                   78.61600              23.36117              30.71298
   AR                   73.76644              19.41477               8.89471
   AR                   67.61802              35.18124              14.21924
   AR                   98.53384              16.19852              40.08582
   AR                   11.70211              29.84831              33.13272
   AR                   86.71899              28.24160              12.07895
   AR                   88.00509               0.77699              15.93963
   AR                   76.37531              12.88159              13.55393
   AR                   86.64393              29.54069              38.43455
   AR                   53.55743              47.69635              48.03212
   AR                   97.49682              48.14534              48.23785
   AR                   96.22075              15.78844              34.27127
   AR                   60.21275               5.45825              44.53127
   AR                   31.11365              26.03085               2.05620
   AR                   27.18097              16.93730               1.49980
   AR                   35.07376              23.34716              28.66578
   AR                   77.70850               3.56744               6.69126
   AR                   90.62865              11.19769              36.72387
   AR                   79.85457              47.85013               2.25739
   AR                    5.21574              16.31630               7.28177
   AR                   21.66298              34.45762              34.29884
   AR                   98.00861              47.85472              39.42792
   AR                   96.85941               3.37218              29.53661
   AR                   83.49596              28.41326               8.03457
   AR                   17.13932               6.03392               3.90752
   AR                   82.18413               2.04880              37.71288
   AR                   32.75234              24.40832               6.96887
   AR                   79.30244              31.66286              40.96494
   AR                   79.88624               8.57588              46.02299
   AR                   85.00031              33.22895              10.77458
   AR                   86.56346              24.07350              27.27126
   AR                   64.53202               8.50037              19.83922
   AR                    2.72526               6.60262              19.49981
