       356
            33.90170            53.29979
   AR                   96.20826              30.29034              35.65319
   AR                   94.72023               4.17714              44.18428
   AR                   83.33895              11.55426              48.94361
   AR                   55.55079              39.42142              47.17422
   AR                   30.25826              24.56358              17.81097
   AR                   13.70868               4.60499              24.81024
   AR                   65.47077               0.12001              36.70190
   AR                   69.27611              14.84810              30.47430
   AR                   68.51698              26.50099              50.57692
   AR                   70.16578              23.12716              45.10613
   AR                   76.94910              11.65626              47.12849
   AR                   54.58453              13.41809              22.81977
   AR                   25.62010               0.34354              27.97582
   AR                   97.69807               7.49850              37.85099
   AR                   99.52778              46.35469              10.43039
   AR                   84.30258               0.46576              33.20936
   AR                   97.24122              21.63661              21.74455
   AR                   12.79198              24.40022               4.86823
   AR                   95.11920              48.49876              36.09590
   AR                   86.73929              24.87648              19.87438
   AR                   54.73090               0.79194              17.92024
   AR                   66.27370               7.18413              22.65980
   AR                   85.51729              15.85128              13.14100
   AR                   94.69536              15.34456              27.84040
   AR                   14.55907              14.31358              21.88224
   AR                   86.12741               4.18760              35.71691
   AR                   15.78867               7.90355              24.81315
   AR                   20.81819               4.98588               7.08531
   AR                   83.92119              18.41891              23.63806
   AR                   25.61793              23.82855              24.23562
   AR                   67.39638              11.32287               3.45414
   AR                   92.02372               5.88822               0.36583
   AR                    0.98829              13.36340               4.97545
   AR                    5.28611              18.77235              20.17045
   AR                   97.64567              38.63985              40.48935
   AR                   56.83205              42.55255               1.22058
   AR                    3.26229              20.09178              30.03043
   AR                   80.02999              30.21313              32.96945
   AR                   22.08214               1.83100              12.63785
   AR                   20.01026               1.11602              32.30500
   AR                   96.95041               6.05870               0.04733
   AR                  100.99144               8.57526              51.40095
   AR                    3.55612               1.36032              14.13225
   AR                   93.62331              21.76049              18.78623
   AR                   59.20844              38.63389              40.88517
   AR                    1.68341               3.27452               4.49120
   AR                   70.83381              51.03520               1.91884
   AR                   51.08035              43.27400              21.18405
   AR                   92.96870              43.39499              22.53876
   AR                   84.76413               1.76587              19.15842
   AR                   58.99776              38.00379              37.06347
   AR                   83.79994              51.90456               0.26209
   AR                   82.32545               9.97865              28.39590
   AR                   99.33555              34.07175              49.31456
   AR                   67.51913              43.65468               3.72790
   AR                   95.64211              36.39475              12.29503
   AR                   11.67272              18.77531              20.62070
   AR                   88.40385              34.70806              51.39384
   AR                   22.95524              27.69988               9.42322
   AR                   11.86848              11.82912               4.88497
   AR                   52.78268               9.88765              50.35494
   AR                   55.98549              28.23642              12.31801
   AR                   98.96830              47.20631              39.47766
   AR                  100.19020              28.19390              33.50107
   AR                   87.13664               1.03861              31.58949
   AR                   87.44007              43.67394              43.17229
   AR                   50.91957              46.57322               0.49091
   AR                    2.78151              22.14380               2.35844
   AR                   81.71159              50.20337              37.71689
   AR                   62.41283              18.26926              40.27294
   AR                   85.04488              30.53206              44.10036
   AR                   54.42142              33.12866              15.00127
   AR                    4.00125              11.16639               6.20566
   AR                   83.45094              10.34744              38.18417
   AR                   95.39905              20.67779              15.79957
   AR                   72.05092              50.62586              45.82813
   AR                   57.85641               5.41092              44.17744
   AR                   71.51155              20.34322              30.40161
   AR                   53.61142              28.37628              35.67788
   AR                  100.15900              14.20294              25.62745
   AR                   80.35009               5.06120              42.70582
   AR                   75.60888              36.68992               6.51782
   AR                   84.63942              34.63960              24.34411
   AR                   26.26187              14.37258              10.10245
   AR                   98.83119              11.72532               0.03811
   AR                    5.64070              21.27496              25.69640
   AR                   32.85779              26.56542              21.69418
   AR                   93.57316              40.45192               1.13875
   AR                   63.80161              43.27602              28.42578
   AR                   72.66887              20.19929              42.97077
   AR                   94.54460              45.30226              50.63026
   AR                   51.70719               1.19103              26.85760
   AR                   93.41457              42.37096               4.55375
   AR                   19.37973               6.44212              31.16748
   AR                   79.90808              34.10443              17.33969
   AR                   93.55214              13.02902              33.03609
   AR                    4.86262              30.34024              13.02874
   AR                  101.10233              20.86444              21.40137
   AR                   83.05308              15.91557              30.68895
   AR                   67.70789               5.30596              44.10398
   AR                   24.07707              17.24302              32.49457
   AR                  102.42668              18.19594              28.93585
   AR                    0.88923               0.41108              19.53941
   AR                   75.10619               9.79460              32.41290
   AR                   12.04662               0.57238              29.15936
   AR                   56.53905              41.13846              36.22904
   AR                   10.06974               6.82453              27.79466
   AR                   66.19760              32.41323              49.26027
   AR                   57.03433              29.26011              26.74092
   AR                   71.09916               7.18626               7.35610
   AR                   92.01317              12.43260              36.00373
   AR                   97.41036               3.19353              28.96042
   AR                   72.43208              34.10551              26.16302
   AR                   51.65994              37.68842               8.75430
   AR                   54.85565              22.59071              46.92370
   AR                   61.80319              10.18704              23.79352
   AR                   55.85129              29.95879              32.41069
   AR                   77.67126              29.58544              19.64097
   AR                   18.00263              29.71580               5.81356
   AR                   67.56936               9.37077              48.17171
   AR                  101.32320              32.04459              23.83923
   AR                   13.12788              11.62031              16.10130
   AR                   98.22318              25.51736              16.33921
   AR                   23.48845               4.60379               1.86872
   AR                    0.96483              14.39928              11.47760
   AR                   75.22190              38.62981              18.97588
   AR                   24.16595               4.65977              11.83662
   AR                   72.55338              19.25633              53.03126
   AR                   70.13553               9.52552              14.29057
   AR                   56.82154              31.65754              11.56012
   AR                   56.29565              23.57825               6.60861
   AR                   92.65947              18.61485              16.60320
   AR                   75.87756               1.15479               6.28751
   AR                   50.92818              43.05121              10.10442
   AR                   72.99037               8.59770              42.19662
   AR                  103.62861              25.04344              21.39927
   AR                   20.65272              31.77279              10.99526
   AR                   95.19409              11.42121              47.84271
   AR                   67.29987              22.81497               5.58422
   AR                   97.11551              34.97149              46.72990
   AR                   90.93537              41.97254              36.90534
   AR                   91.64774              46.55762              43.57965
   AR                   30.21265               8.54301              28.16326
   AR                   77.45287              30.15194              38.34253
   AR                   83.62003              41.12980              24.89994
   AR                   76.54864               2.15433              51.22149
   AR                   94.77813              10.67525               2.20375
   AR                    6.01908              33.08501              30.72060
   AR                   88.67848              51.14695              28.41510
   AR                   26.84480               9.24922              20.89537
   AR                    9.76026               2.04012              23.80464
   AR                   53.59515              17.87711              20.26715
   AR                   77.19692              37.56815              12.14821
   AR                   88.68577              30.58499              10.39997
   AR                   26.09807              26.75068              17.60785
   AR                   57.28957               0.05941               0.72749
   AR                   98.17386              16.24263              32.52223
   AR                   62.65950              37.64629              33.85984
   AR                   69.98758              36.85937              47.87596
   AR                    8.16589               5.46797               7.75611
   AR                   77.80611               2.34223               3.74779
   AR                   78.20105              30.54432               1.67255
   AR                   67.70790               8.77833               8.75010
   AR                   50.94215              14.90307              28.87817
   AR                   60.07904               2.15878              53.29104
   AR                   62.90954              21.92378              32.66769
   AR                   90.67120               8.99583              35.02393
   AR                   78.09206              26.58059               0.39040
   AR                   71.02789               4.91957              33.67034
   AR                   90.56957              33.10032              37.86361
   AR                   64.30689              17.91209              47.34533
   AR                   56.77708              47.09697              31.67902
   AR                   73.58952              15.53534              47.47399
   AR                   17.24734              14.85196              32.46313
   AR                   56.60157              34.66666              46.15261
   AR                   71.10446              13.14660              25.11219
   AR                   16.73540               1.26180              19.34078
   AR                   58.20616              21.17792              52.71674
   AR                   60.78803              46.84107              46.10391
   AR                  102.73530              24.23908               2.08437 FRACTIONAL
   AR                   91.77040              31.68650              50.02860
   AR                   89.85727               2.62470               7.56234
   AR                   32.99340               3.14831              28.38178
   AR                   10.48142               4.00183              17.39238
   AR                   80.15931              42.58035              12.89285
   AR                   66.73530              18.45474              12.51861
   AR                   20.09258               4.73551              28.27203
   AR                   96.71069              18.04090              20.33239
   AR                   12.06943              10.93944              26.73678
   AR                   57.48350              45.31314              49.15450
   AR                   53.33910              33.24674               8.37710
   AR                   16.69960              19.08024              32.03432
   AR                    8.57877              25.12030               8.14035
   AR                   76.81055              45.51354               8.30583
   AR                   67.84470              18.96387              15.56889
   AR                   32.50719               0.38487              14.34073
   AR                   57.52695              16.86573              20.32216
   AR                   77.02217              10.93639              24.53809
   AR                   32.07850              16.22406              19.02876
   AR                    0.75724              22.41163              26.72898
   AR                   76.34255              12.98803               3.82962
   AR                   74.65726              31.19173              23.79379
   AR                   84.31470              51.20379              28.54238
   AR                   95.63448              52.81779              15.03132
   AR                  101.45228              48.05273              47.28976
   AR                   51.16459               2.97276              37.17619
   AR                   89.55188               2.66593              51.13122
   AR                   82.55427              51.71096              20.68925
   AR                   63.57659              33.83850              18.88123
   AR                   52.39769              29.82385              45.09368
   AR                   84.21790              31.27731              27.33354
   AR                   83.64421              45.68668              51.87464
   AR                   12.09125              33.85234              25.46478
   AR                   57.37506              35.27847              25.75588
   AR                   52.59671              14.88997              18.03069
   AR                   56.69354               9.76821              42.37307
   AR                   59.74813              48.76372              21.39098
   AR                   69.24340              46.75606              29.94979
   AR                   65.84473              33.21669              32.40336
   AR                   83.19348              11.97245              18.22910
   AR                   66.06497               6.11999              53.28249
   AR                   76.23925              17.56965              38.42729
   AR                   87.89876               4.34837              32.23151
   AR                   32.24791              27.29707              17.96517
   AR                   91.05459              24.08981              20.97156
   AR                   99.97082              37.82433              52.97281
   AR                   57.72066              20.21157               3.31709
   AR                   57.74784              34.27310              37.53017
   AR                    9.86270              12.63462              13.19816
   AR                   99.49444              44.84393              47.85940
   AR                   54.22275              45.07659              28.60495
   AR                   62.81453              52.52350              20.74261
   AR                   22.41797              22.24347               5.86735
   AR                   82.83759               7.00142              53.29954
   AR                   61.19166              24.42195              43.97716
   AR                   60.77810              47.33598               1.54604
   AR                   70.21651               1.30397              33.97690
   AR                   53.95252              34.61439              25.86327
   AR                   18.88783              19.55929              24.87066
   AR                  103.84361              16.27959              38.51169
   AR                   68.67751              26.53809              33.97005
   AR                   16.41638               9.34191              28.42352
   AR                   61.06346              42.85549               3.11138
   AR                   85.03559              40.42591              19.69592
   AR                   98.10229              40.90950               9.61856
   AR                   84.96820              26.51945               2.41284
   AR                   29.34978              25.52529              30.46535
   AR                  100.97028              50.03280               1.87138
   AR                   76.53086              49.74376              11.29454
   AR                   72.83525               2.17749              51.37950
   AR                   91.64624              43.00407              16.03233
   AR                   25.90146              31.76846              10.34103
   AR                  102.16859              16.20067               0.61807
   AR                   88.64366               2.48488              28.60338
   AR                   76.78919               0.72304              11.16875
   AR                   27.19931              24.34277               1.66450
   AR                   57.94564              33.91154              32.20966
   AR                   59.08864              51.25676              31.34604
   AR                   71.99550               3.48763              36.90494
   AR                   64.10149              28.96985              37.17739
   AR                   82.53763              25.63188              31.95822
   AR                   75.08429              26.42468               6.07421
   AR                   80.86807               3.42860              21.25615
   AR                   68.62060              15.77647              35.62196
   AR                   58.26676              29.82704              43.62783
   AR                  103.22035              21.75256               1.47293
   AR                   96.81634              34.82747              21.73089
   AR                   55.84401              14.24490              32.84139
   AR                   79.70807               8.10895               6.29804
   AR                   23.31292              22.79851              32.83149
   AR                   62.37402              48.24553              26.81461
   AR                  102.24748              12.30017              47.24088
   AR                   71.40887              28.73532              42.78336
   AR                   73.76626              51.38223              39.69626
   AR                   62.36218              36.88832              38.17773
   AR                   62.01210              23.43305              12.40851
   AR                   72.47499              24.13300              50.23960
   AR                   60.07201              40.83170              17.06301
   AR                   27.31317               2.91671              23.46177
   AR                   95.40450              22.47117              34.48652
   AR                   95.22995               4.59531              35.80382
   AR                    2.69203               3.26406              17.18782
   AR                    1.62663               8.25010              13.00399
   AR                   83.35147              16.21374               6.33914
   AR                   73.26050              12.31782              19.94890
   AR                   76.17130              11.10437              38.30302
   AR                   64.19336              31.44943              42.34394
   AR                   77.56795               4.89387              47.70903
   AR                   66.16735               0.76947              24.12552
   AR                   18.20513               8.12734               1.38282
   AR                   75.86952              48.54106               7.15513
   AR                   33.29656               9.15050              25.22982
   AR                   66.28633              35.31459               6.72955
   AR                    3.77935               8.01114              22.17404
   AR                   93.49275              47.70254              11.17731
   AR                   82.06605              43.47485              18.84216
   AR                   99.30630              45.34860              25.08380
   AR                   53.21177              26.67221              31.32409
   AR                   75.45604              43.25978              51.54344
   AR                   94.18784              10.60285              27.53208
   AR                   65.31550              45.85466              25.82212
   AR                  103.10480              12.68550              19.39070
   AR                   22.27697              20.36481              17.74053
   AR                   78.25039              27.85801               4.34425
   AR                   11.13252              30.19890              18.54587
   AR                   64.54264               7.06357              16.00085
   AR                   91.23874              38.32634              36.34398
   AR                   71.05067              24.24260              18.19542
   AR                   27.48579              10.52846              33.13511
   AR                   25.56751              33.38177               4.27947
   AR                   89.92439              14.96110              19.51885
   AR                   91.40493              44.33340               8.70145
   AR                   76.03201              41.85361              18.15826
   AR                   75.58731              23.77514              14.97203
   AR                   85.96996              27.46444              50.07973
   AR                   26.13880               8.59416              29.67713
   AR                   53.15703               7.29599               6.49472
   AR                   84.74205              18.34830              36.47867
   AR                   94.70072              41.84320              26.11645
   AR                   76.50042              22.88463              29.33307
   AR                  103.85023              17.24357              22.56403
   AR                   91.54685              20.23131               0.87936
   AR                   29.85467               4.89656              28.92438
   AR                   77.36910              18.79214              24.57185
   AR                   95.90310              47.47639               0.17054
   AR                  101.14892              18.72529              33.34107
   AR                   64.56023               2.79878              27.50325
   AR                   83.44994              49.66090              41.36892
   AR                   93.94126              52.32912              21.51842
   AR                   72.39913              12.74083              32.52367
   AR                   73.05105              18.65918               3.08059
   AR                   70.90795               3.84801              11.46915
   AR                   58.74130              52.22096              45.64456
   AR                   81.68561              29.79650              42.07648
   AR                   93.51648              11.54820              14.29210
   AR                   32.91300              28.28364              11.10865
   AR                   10.50029               2.32507              33.75909
   AR                    3.26585              21.43845              19.14185
   AR                  100.62927              11.41216              32.70573
   AR                   66.57042               0.93709               9.13818
   AR                   68.17610              25.02253              16.02984
   AR                   96.66117              32.65353               4.83042
   AR                   30.99884              11.73076              27.50124
   AR                   99.89438              10.28793              43.30377
   AR                   12.23320              17.29231              33.85866
   AR                  101.12181              51.16300              19.75168
   AR                   13.36803               3.83501              27.94330
   AR                   96.91212              25.53346              10.20134
   AR                   78.67662              34.01436              33.28453
   AR                   81.90201              39.76525              14.19149
   AR                   80.72664              13.43479              44.69390
   AR                   59.64752               0.90807              40.69741
   AR                   82.74308              21.82133              37.84804
   AR                  100.80330              36.53775              18.48448
   AR                   13.61570               7.82154              28.77065
   AR                   72.93529              13.72034              29.40192
