       421
            30.76288            53.43404
   AR                   63.82773              18.15796               9.05691
   AR                   12.18437               2.40731              26.73995
   AR                    9.87462              19.57855               7.26211
   AR                   59.51578              43.27324              36.54546
   AR                   94.78316              38.52596              21.88890
   AR                   74.17950              26.52975              27.35575
   AR                   81.37747              17.77528              43.71330
   AR                   52.88145              20.66051              28.06963
   AR                   50.23416               6.46870              28.95718
   AR                   86.90360               6.31873               8.64233
   AR                   59.09008              16.60082              35.30188
   AR                   60.78390              41.34752              45.65926
   AR                   57.61779              15.21026               5.09442
   AR                   88.75691              17.19731              21.22400
   AR                   51.54189               4.98174              49.70384
   AR                   49.43404              41.14004              51.16350
   AR                   48.64132              33.89875              51.05460
   AR                   60.68175              22.20482               2.92821
   AR                   55.37516              27.41446              20.05260
   AR                   61.42076              53.00862               9.05100
   AR                   79.52951              41.82369              24.95213
   AR                   56.22713              45.59309              32.88947
   AR                   65.80621              51.85385              10.60477
   AR                   61.20341              46.17314              52.21270
   AR                   71.03750              53.25232              20.63044
   AR                   56.79408              23.70859              11.51359
   AR                   96.91330              20.15862              19.43739
   AR                   92.55783              42.11205               5.33154
   AR                   64.33672              33.14841              18.74042
   AR                   64.71996              10.99785               1.93744
   AR                   58.49039              15.13338               1.69001
   AR                   99.19667               4.85150              33.43134
   AR                   96.08192              47.18980              48.26520
   AR                   90.15491              47.23014              35.82213
   AR                   89.70295              33.40720              48.54644
   AR                   59.21891               5.64022              47.87541
   AR                   75.44115              22.07379              20.34796
   AR                   96.33195              29.97000               9.31245
   AR                   87.24258              20.54787              15.82335
   AR                   59.39015              39.46567              42.16487
   AR                   47.62099              52.31298              10.95064
   AR                   73.18813               8.35334              16.17961
   AR                   26.88003               7.84770              11.94054
   AR                   16.97945              12.78582               8.76604
   AR                   67.45680               7.93521               1.23038
   AR                   60.09592              49.00188               0.42030
   AR                   59.67750              15.12453              11.97031
   AR                   98.04555              27.00379              52.53744
   AR                   82.94950              34.22365               8.06191
   AR                   58.99362               7.26169              11.44496
   AR                   49.28464              44.56615               8.64681
   AR                   46.19790              10.48927              21.77885
   AR                   98.80263              10.39701              37.28368
   AR                   19.30017               3.40841               3.80411
   AR                   63.71380              38.97762              44.20855
   AR                   80.31912               0.71258              46.51381
   AR                   20.92073               0.28155              16.88109
   AR                   98.47040              23.10874              36.28731
   AR                   30.05757               9.63500              12.01538
   AR                   82.66795              26.76780              51.00472
   AR                   84.81889              46.14694              32.93159
   AR                   66.77131              53.10046              47.02013
   AR                   91.61859              11.12911              53.02668
   AR                   17.56154              13.83188              22.61245
   AR                   71.33752               7.86740              19.25743
   AR                   78.42910              27.91872              11.54051
   AR                   98.87469              42.78937              43.92165
   AR                   70.25784               3.66972              22.21179
   AR                   81.43952              12.18945               5.75519
   AR                   71.98419               3.19449               4.15516
   AR                   81.92848              25.76265               2.93409
   AR                   86.42218              28.92541               1.53710
   AR                   65.38007              23.23762              48.66644
   AR                   46.61314               5.79833               1.79198
   AR                   58.12725              32.81111              14.54157
   AR                   83.31907              44.53356              23.40341
   AR                   62.35749              24.73019              49.80800
   AR                   77.16502              53.15881              37.62365
   AR                   63.26142              14.44247              36.99512
   AR                   10.52161               1.30703              23.17596
   AR                   50.27016              30.94531               6.11509
   AR                   77.10839              13.12542               1.84943
   AR                   65.57746              15.77867              49.10946
   AR                   87.36156              14.22425              29.62104
   AR                    0.46786               0.67674              29.26838
   AR                   69.85836               6.55878              28.80145
   AR                   79.95959              18.74894              17.04038
   AR                   28.80638              17.68437              27.21205
   AR                   50.82827              24.25910               9.00067
   AR                   52.18195              22.68500              37.48491
   AR                   75.15807              21.23506              47.97684
   AR                   52.75120              33.74927              16.44469
   AR                   73.09838              38.23397              14.79011
   AR                   52.69597              37.34461              15.58573
   AR                   50.26121              35.02438              12.60389
   AR                   98.29657              35.94759              47.94761
   AR                   67.97852              34.08105              15.05192
   AR                   71.95591              24.28041              13.09045
   AR                    7.80418              24.02707              28.16738
   AR                   82.42869              38.03955              22.95224
   AR                   62.80086               5.66517              47.33175
   AR                   70.35241              43.99974               7.11176
   AR                   26.61500               8.65919               0.82211
   AR                   78.88983               5.12862              43.64032
   AR                   90.25902               4.67987              16.80316
   AR                   54.74527              35.51455               6.05593
   AR                   99.25095              44.90617              32.98120
   AR                   56.59015              13.04147              10.20327
   AR                   79.33884              29.29448              15.82218
   AR                   67.48245              40.07992              31.73860
   AR                   75.44967              31.21933              19.40176
   AR                   59.79584               0.63246              34.54336
   AR                   69.74905              10.49265              50.03883
   AR                    8.11468              27.94380              18.89258
   AR                   96.52459              18.78386               1.38434
   AR                   67.38597              18.91981               6.33700
   AR                   90.19255              51.85853               3.64208
   AR                   83.75172              46.56755              17.39409
   AR                   60.03984              44.84924              23.12868
   AR                   70.28115              45.35544              52.14189
   AR                   64.59648               0.95362               6.77809
   AR                   73.80067              41.31059              44.42266
   AR                   85.69967               2.62748               6.18371
   AR                   82.78420              48.39525              25.48718
   AR                   73.49969              52.95279               1.89089
   AR                   67.52217              37.49189              26.23910
   AR                   20.49608              18.81300              30.15099
   AR                   51.99709              16.17627              38.80534
   AR                   65.58786               5.22739              41.54376
   AR                   87.68317               8.57245              39.74933
   AR                   58.82137              41.68866              31.37850
   AR                   47.53258               2.38017              23.84080
   AR                   48.22890              49.44233              22.06080
   AR                   54.96733              43.76377              20.57103
   AR                   83.60464              35.86005              17.37999
   AR                   17.24961               5.83105               1.47458
   AR                   79.65992              48.11042               3.09509
   AR                   60.35105              30.06070              41.41754
   AR                   63.05883               0.44701              13.27763
   AR                   56.95902              22.04847              31.20011
   AR                   17.42460              21.64755              29.94813
   AR                   54.27110              15.04808              51.12280
   AR                   24.36654               7.37011               8.54486
   AR                   68.23608              40.71820              37.05240
   AR                   95.75027              13.80264              37.68723
   AR                   53.71492              18.37143              25.64459
   AR                   97.07075              51.65391              36.39084
   AR                   91.47230              10.98746              39.54680
   AR                   77.42080              47.86439               0.17145
   AR                   55.37352              10.91225              52.92173
   AR                   94.01666              38.54182               4.02549
   AR                   30.25999              26.15411              17.82319
   AR                   73.00989              33.37296              29.43592
   AR                   97.41754               3.99418              40.18220
   AR                   73.21232              47.23644               6.94187
   AR                   26.47949               1.25187              13.62098
   AR                   54.13399              36.01233              32.19388
   AR                   85.23940              12.89428               6.21155
   AR                   74.55550               8.02824              50.08073
   AR                   81.35960              45.14452              35.87318
   AR                   58.07320              23.07543              50.48839
   AR                   73.28097              44.97267              11.23440
   AR                   74.04503              52.36501              32.35945
   AR                   73.45931              34.36922              42.89537
   AR                    9.93311               7.03256               6.92574
   AR                   95.74368              22.26291              42.78065
   AR                   63.32904               7.21058              23.62183
   AR                   23.89993              26.27058              22.37899
   AR                   52.27226               3.33886              32.23336
   AR                   10.10269              28.83468              21.38796
   AR                   77.21304               0.27409              10.58332
   AR                   84.20154               8.71605              36.66943
   AR                   25.31653              14.76910               1.47131
   AR                   18.45215              23.90476              15.08740
   AR                    1.60187               4.59591              25.93057
   AR                   50.97362              44.97495              28.44145
   AR                   64.42700               8.54585              51.85103
   AR                   81.93856               7.65359              24.53581
   AR                   55.27939              33.33868               1.06840
   AR                   78.30538              38.93947              21.29199
   AR                   92.82171               1.84798              31.70068
   AR                   51.70632               7.39733              16.94098
   AR                    8.12357               5.81134              18.22464
   AR                   77.16192              16.70733               3.76199
   AR                   71.21019              21.32579              14.73796
   AR                   85.88962              10.46344              42.59583
   AR                   90.14817              48.51955              49.15233
   AR                   65.51665              35.47934              22.17871
   AR                   73.07139              49.02293              32.20836
   AR                   81.20591              39.05232              17.93117
   AR                   57.54355               1.19548              10.18152
   AR                   66.61463              10.11496              23.57356
   AR                   48.97986              52.12813              18.16176
   AR                   73.80181               7.51591              44.01079
   AR                   92.97979              37.54479              36.10859
   AR                   65.60068              10.28552              41.40364
   AR                   55.50973              12.68278              20.26263
   AR                   90.52587              38.53400               6.36540
   AR                   15.13388              17.79738               4.35238
   AR                   95.20250              11.71661               4.76326
   AR                   49.44089               3.06320              37.22169
   AR                   72.02856              43.87700              22.03601
   AR                   68.37017               6.84047              10.86159
   AR                   17.27385              24.40901              19.72472
   AR                   66.01062              43.34548              11.07879
   AR                   71.26179              36.70522              28.26391
   AR                   74.32680              25.06205              42.55281
   AR                   78.91403              28.06314              33.22504
   AR                   57.15804              42.37745              23.22927
   AR                   72.33267               1.64419              45.73306
   AR                   47.89228              12.52207               4.48170
   AR                   95.38240              20.72964              39.67398
   AR                   76.70744              35.65845              33.80648
   AR                   79.32706              12.11839              40.10831
   AR                   47.93531              40.37765              11.86955
   AR                   74.84510              19.17775              52.81724
   AR                   76.89589              51.76334              23.53061
   AR                   69.77551              48.56927              50.09301
   AR                   29.82598               3.54116              27.83163
   AR                   27.82350              10.94190              25.47532
   AR                   50.80692              23.12599              18.73932
   AR                   77.32653              35.36476              27.94041
   AR                   85.98947              22.94662              24.78337
   AR                   56.85250              43.68667              26.79885
   AR                   66.01998               7.50006              37.08471
   AR                   52.15083              18.52579              32.69955
   AR                   68.23595              46.21198              34.16425
   AR                   94.67171              20.59050              31.97060
   AR                   55.01321               1.02075              32.06615
   AR                   90.04790              15.28828              48.43059
   AR                   88.43340              48.83461              32.73127
   AR                   78.48742               7.54152               6.24529
   AR                   87.45927              51.27501               5.87980
   AR                   99.51144              12.00831               1.84863
   AR                   96.03445              49.72721              10.66094
   AR                   64.45562               2.40013              16.08677
   AR                   53.47625              24.74711              49.68159
   AR                   52.06011              17.86212              49.00861
   AR                   51.77567               3.42144              22.31531
   AR                   51.31737              36.85900               5.61693
   AR                   92.30262              18.69936              38.05793
   AR                   59.86137              36.83698              19.54630
   AR                   64.04239              21.71625               8.08238
   AR                   87.97333              12.52460              37.24685
   AR                   83.85569              15.26962              34.43532
   AR                   53.10867               9.24386              26.54326
   AR                   88.11687              27.56788              34.65639
   AR                   94.36236              29.50755              42.15951
   AR                   88.67981              18.48184              39.63658
   AR                   85.64996              43.95369              37.57386
   AR                   85.34339               3.09128              23.32210
   AR                   48.37161              30.84903              36.06723
   AR                   86.10669              46.97773              14.27149
   AR                   69.22717              10.85000              40.36910
   AR                   55.84759              29.59291               9.66912
   AR                   92.67637              12.94208              11.71089
   AR                   65.38693              44.91176              24.36532
   AR                   90.81829              30.12551              34.87556
   AR                   56.41200              28.02388              14.09470
   AR                   93.31537              33.64274              27.87098
   AR                   83.44769              49.70590              30.79535
   AR                   54.15443              34.36867              22.82070
   AR                   98.27208              38.60076               0.72050
   AR                   62.46366              10.02735              43.85184
   AR                    8.72864               9.20836              19.09121
   AR                   78.12336               6.07081              52.98537
   AR                   72.35987              37.89588              19.01637
   AR                   56.39407              38.70836              33.14770
   AR                   53.51298              27.69483              27.74304
   AR                   56.23273               4.62532              32.68543
   AR                   99.41486              44.45941               5.16985
   AR                   92.98077              45.43684              27.47398
   AR                   81.48773              11.19796              43.94502
   AR                   24.68222              20.01863              22.36528
   AR                   12.40089              14.90911              18.88929
   AR                   30.50667              11.60836              28.34138
   AR                    8.61775               9.86548               5.40121
   AR                   69.55718              28.15450               7.52269
   AR                   98.15684              37.24405              10.66572
   AR                   53.43625               4.53068              26.59121
   AR                   94.45215              35.89724              11.39236 FRACTIONAL
   AR                   94.53711              36.17433              44.44906
   AR                   93.86932              29.60793              21.53153
   AR                   69.60833              17.58080              24.59946
   AR                   17.82632              21.30075              18.06502
   AR                   16.04691               9.32182              27.63461
   AR                   82.08930              26.11519              10.81002
   AR                   71.16812              21.47234              39.92445
   AR                   47.65147              49.88780              48.76453
   AR                   15.69008               9.05465              15.49656
   AR                   66.68896              24.72417              43.51538
   AR                   57.39961              19.50330              51.24325
   AR                   84.14591              25.49671              21.12964
   AR                   84.44741              36.03859              31.36113
   AR                   68.89171              40.38577              23.00577
   AR                   88.00319              27.29112              15.99532
   AR                   93.97767              51.02400               8.02613
   AR                   14.30308              25.38540              23.78199
   AR                   96.10758              36.01841               7.48809
   AR                   11.64674              20.15115               2.55547
   AR                   71.29254              19.05268              17.22792
   AR                   62.70701              39.55985              40.46977
   AR                   66.70924              46.41018              14.02894
   AR                   66.31348              36.50330              43.87845
   AR                    6.98365               8.43526              26.38809
   AR                    2.64637              15.55649               0.37354
   AR                   97.37273              50.97333              28.82072
   AR                   98.56129              37.93430              41.22729
   AR                   75.08153               3.53791              23.39461
   AR                   74.62672              40.44393              21.63909
   AR                   55.65544              39.96675              14.82660
   AR                   94.73801              18.07687              43.62267
   AR                   49.32653              26.27129               5.02978
   AR                   51.12475              38.90276              12.24117
   AR                   14.67440              22.64569              17.35783
   AR                   70.25090              30.19235              42.34389
   AR                   99.45495               6.93298              30.62789
   AR                   53.12955              26.60747              12.89947
   AR                   80.09335               8.05290              41.32054
   AR                   55.72865              36.95717              42.82735
   AR                   79.51277              25.05010              27.66690
   AR                   89.63776              44.54654              50.18409
   AR                   91.80095              38.01634              39.98557
   AR                    7.53910               0.73787              20.53014
   AR                   71.45406              44.62687              17.57780
   AR                   58.35848              36.88687              47.88754
   AR                   46.43503              32.25846               2.43756
   AR                   74.38565              10.61254              11.64209
   AR                   54.78198              45.51255              43.78300
   AR                   61.21015              18.84158               3.55486
   AR                   61.11464               1.22266              47.59018
   AR                   62.77061              26.55403              30.84170
   AR                   67.63704               1.69335              43.24597
   AR                   82.92075              50.91216               4.64958
   AR                   48.94968              33.08137              39.71060
   AR                   73.38592              13.21332              42.46319
   AR                   94.95545              45.08800               0.93079
   AR                   61.07258               2.54094              20.83495
   AR                   97.76470              31.92761              43.01336
   AR                   64.92917              40.89893               4.65601
   AR                   30.76015               2.27759              24.00781
   AR                   91.40280              44.11613               0.65102
   AR                   97.11592               4.25947              30.14692
   AR                   84.78263              46.54922              52.84565
   AR                   57.19421              39.40898              18.96764
   AR                   70.28844              41.67932              15.02376
   AR                   17.94885              10.78348               5.34794
   AR                   30.38282              26.92372              10.27519
   AR                    5.38239               1.48146              27.33849
   AR                   49.70170              45.47751              47.98996
   AR                   89.07925              15.06286              26.31898
   AR                   85.40928              21.89217              36.97301
   AR                   97.55495              32.52521              24.59846
   AR                   72.54669               7.52607              11.10116
   AR                   66.57192              19.15651               1.73159
   AR                   91.80316              44.06193              45.56428
   AR                   94.44084               1.11825              40.54318
   AR                   61.65446              50.55989              13.93775
   AR                   83.18926              29.09037               1.70752
   AR                   73.54011              50.49514              35.42414
   AR                    0.11560               7.17419              14.26052
   AR                   81.35244              37.60080              14.90740
   AR                   81.51560              16.12936              49.78250
   AR                   30.59652              26.80672              22.23989
   AR                   75.63683              25.26922              24.12908
   AR                   63.89612               4.40538              34.57127
   AR                   75.10300              25.85699              52.00341
   AR                   92.19716              26.97609              37.37398
   AR                   77.90204              46.38425              40.39969
   AR                   67.44105              46.08207               1.68678
   AR                   52.29401              10.54808              19.35377
   AR                   81.30442              19.96825              22.76303
   AR                   94.55473               7.78898              24.82463
   AR                    4.44025              29.35238              23.39555
   AR                   92.32269              29.64298              39.11631
   AR                   56.34269              14.60363              42.14131
   AR                   76.35662              46.62939               4.24111
   AR                   82.18422              23.20028              33.83936
   AR                   84.90707              27.49049               7.19968
   AR                   63.99036              39.63675               0.39032
   AR                   63.89121              18.26240              13.21855
   AR                   64.22006              31.10491              10.53712
   AR                   68.26273              50.85171               5.64296
   AR                   89.95319              10.20391              14.32439
   AR                   81.58695              26.96225              31.41701
   AR                   53.56740              28.50837              31.79703
   AR                   97.08671               4.71507              24.11483
   AR                   88.84783              35.74182              44.05356
   AR                   55.83911              34.08048              16.95514
   AR                   71.72837              23.57855               7.84445
   AR                   97.49764               0.33709              25.00380
   AR                   91.53398              48.48726              45.41364
   AR                    2.76154              12.61777              17.53539
   AR                   81.67663              51.67540              43.22041
   AR                   62.59687              28.20604              27.53971
   AR                   58.39851              34.22240              44.27671
   AR                   50.15111               6.72515              33.41289
   AR                   61.79014              33.64296              12.25589
   AR                   82.06100              22.25040              27.90029
   AR                   46.31933               5.66031              19.59245
   AR                   82.59828               3.12268               0.13716
   AR                   54.26523              45.81100              25.76924
   AR                   65.62379              41.78862              41.93229
   AR                   48.64026              15.72543               0.70270
   AR                   79.40453              46.13792              25.62441
   AR                   48.60670              28.84982              41.58365
   AR                   13.76829              25.82017              18.57524
   AR                   74.79267              30.40148               8.49579
   AR                   68.28853              35.23270              47.39530
   AR                   97.89428              29.44308              33.19979
   AR                   59.04449               8.78587              41.74620
   AR                   81.52886              48.44784              14.49244
   AR                   58.52239              29.65352              48.03375
   AR                   84.66006               1.64598               9.68980
   AR                   91.96749              23.07876              41.90407
   AR                   82.44031              41.82938              47.70699
   AR                   81.97137              49.94458              39.41512
   AR                   78.71683              22.49323              41.66107
   AR                   50.59451              23.21119              47.72100
   AR                   73.76400              35.94185               8.87778
   AR                   67.40196              33.02524              45.11225
