       356
            33.77883            55.36484
   AR                   56.18706              34.92302              33.46636
   AR                   66.35070              16.37537              38.58828
   AR                   79.41501               0.88382              33.03524
   AR                  101.99673               1.41120              45.40672
   AR                   85.06607              22.59710              41.86355
   AR                   68.44378               2.41873              29.44733
   AR                   79.74333              14.59741              15.90557
   AR                   97.32653              53.64116              17.00686
   AR                   57.53572              44.02079              14.26226
   AR                   29.07645              33.40629               5.76684
   AR                   33.05588              31.19653              15.56616
   AR                   63.11930              47.57941              27.03056
   AR                   10.08361               6.46676              28.64251
   AR                   85.01601               1.91087               1.39363
   AR                   59.00849              14.48043              24.26945
   AR                   12.33867              14.57508              11.26747
   AR                   61.48964              12.27651               1.19184
   AR                   76.40445              22.67295              41.21560
   AR                   60.08302              54.50037              52.94135
   AR                   85.46970              48.94967              49.53952
   AR                   82.24521              20.71359              20.26550
   AR                   89.82484               3.77493              42.84427
   AR                   78.13989               2.67127              53.09087
   AR                   71.93606              39.82042              25.32065
   AR                   88.60315               6.23071              46.80362
   AR                   94.43386              37.29861              38.91941
   AR                   79.35007              16.29567               2.92860
   AR                   76.05565              12.15601              13.99283
   AR                   54.34145              17.40408              50.47258
   AR                   87.88436              28.96915              13.46203
   AR                   81.14314              45.95832              44.55702
   AR                   52.39194              40.92178              13.18319
   AR                   73.51965              44.50492              39.54421 FRACTIONAL
   AR                   57.15374               4.46877              24.97772
   AR                   80.68312              29.64114              18.79613
   AR                   66.23180              11.31337               6.88333
   AR                    1.45025              26.64390              19.51781
   AR                   52.42174              46.10622               2.05061
   AR                   65.24783              36.10705              20.66862
   AR                   67.94477              25.96007               6.95405
   AR                   99.80918               1.80849              13.08133
   AR                   55.13293              23.26363              20.16643
   AR                   88.65097              44.73464              22.64260
   AR                   51.18474              34.36987              15.04908
   AR                  103.70303              49.13717              43.12966
   AR                   52.98347               7.99273              47.38812
   AR                   85.71802              47.01424              32.84450
   AR                   55.48962               4.05424               4.30448
   AR                   96.54177              48.64001              52.42645
   AR                   59.00483              25.95452              23.18719
   AR                    1.74292              31.09429               4.65385
   AR                   53.89320              25.82064              14.86044
   AR                   60.85168              16.93040              41.11316
   AR                   95.36463              54.98588              36.95185
   AR                   78.91221              22.45152              20.18301
   AR                  105.12327              29.36528              37.09901
   AR                   60.13857              30.73284              41.20901
   AR                  102.75653              27.77229              27.33990
   AR                   25.40113              24.71316              26.22080
   AR                   88.97133              46.46973              38.37493
   AR                    9.35709              22.95114              12.20122
   AR                   62.67516              10.53034              11.53155
   AR                   96.18689              12.32529              37.04304
   AR                   84.44147              36.81865              48.73450
   AR                   12.79456              22.40306               1.46520
   AR                   70.61996               0.88758              32.60708
   AR                  105.58302              27.47033              19.97818
   AR                   60.31642              25.98094              34.41165
   AR                   15.86082               1.81458              20.59954
   AR                   81.66782              31.93360              30.26439
   AR                   87.89710              43.87786              26.95134
   AR                   64.80664              54.71029              39.37810
   AR                   99.32974               0.28268              30.20099
   AR                   64.57292              44.00687              23.60479
   AR                   72.54304              33.62174              39.81152
   AR                   83.24052              35.36347              25.41895
   AR                  101.09946              13.71355              54.71216
   AR                   92.28479              42.60625              39.83437
   AR                   83.91303              45.53688               2.77306
   AR                   89.07183              46.84238               2.68446
   AR                   77.95096              26.42723               5.97640
   AR                   89.90143               7.67547              10.29007
   AR                   53.63321              50.58859              49.51366
   AR                   99.32059              50.76204               7.77675
   AR                   93.93492              25.90861              44.07674
   AR                   24.34557              13.78793              23.22299
   AR                   77.19709               8.42458              11.52201
   AR                   58.84063              15.46009               3.66039
   AR                   11.05265              29.89415              13.44260
   AR                  103.73648               3.36660              24.20408
   AR                  103.84529              35.22390              11.08171
   AR                   98.49347               4.03575              26.46998
   AR                   52.99739               8.52150               1.36058
   AR                   67.57555              12.37063              40.15337
   AR                   76.20322              11.36923               9.33065
   AR                   74.24796              30.04530               5.43954
   AR                   75.73106              17.43616              26.48157
   AR                   22.92326              30.34994               6.07989
   AR                   18.50053               6.58523               9.68052
   AR                  100.55599              23.05602              21.07951
   AR                   77.42241              47.77471              43.17386
   AR                   79.55573              49.21259               1.67187
   AR                   89.12035               1.86020               5.34516
   AR                   70.71906              13.52328              24.33457
   AR                   97.76753              33.98601              27.33821
   AR                   95.38937              45.55976              17.78631
   AR                    9.50113               4.71491              32.07701
   AR                   62.98740              17.98721              25.00441
   AR                   78.52853               5.05438              50.88438
   AR                   90.40114              52.61555              50.07554
   AR                   99.22026              43.82669               9.05460
   AR                   87.17263               6.19708              53.56855
   AR                   74.64908              30.53273              53.24045
   AR                   95.13506              37.25797              17.34770
   AR                    1.05700              29.54137              31.33717
   AR                   99.59301              27.78304              48.40859
   AR                   63.18430              21.36712              14.09709
   AR                   66.20857              49.21452              50.79079
   AR                   86.18731              53.68876              55.32811
   AR                   26.96865               2.42704               5.70187
   AR                   99.58207              31.62797              46.25617
   AR                   82.64841              20.59423              40.08003
   AR                   69.80991              50.42815              33.64397
   AR                  101.17775              17.31804              53.84265
   AR                   94.90944              46.81742               5.24486
   AR                    9.18870               8.49809              18.35048
   AR                   60.78501              35.06740              26.71307
   AR                   30.41495              13.69465              29.44304
   AR                   56.32283              45.59328              20.47966
   AR                   79.77556              38.74624              42.18825
   AR                   97.28090              46.62779              32.62173
   AR                   51.04270              32.21541              40.08118
   AR                    1.47061               0.35994              10.60641
   AR                   96.31803               7.60236              34.97538
   AR                  102.83030              40.36132              36.61436
   AR                   74.85101              25.69306              54.01770
   AR                   67.42318              49.42164               8.78024
   AR                   82.06523              22.45512              44.60632
   AR                   58.70742               8.61588              47.72930
   AR                   56.77742              22.02759              50.24678
   AR                   65.54717              14.33130              30.39744
   AR                   82.45188               0.00531              53.77288
   AR                   96.68591              53.16962              32.51063
   AR                   72.93336              37.89440               7.43838
   AR                   95.63251              42.50624               7.36897
   AR                   22.57587              30.00731              13.66782
   AR                  102.82782              21.80330              17.29263
   AR                   15.46594               9.24248              12.32470
   AR                   59.39076              22.05087              21.73258
   AR                   63.91500              33.83375              30.02679
   AR                   65.51596              33.42908              55.06956
   AR                  105.35161              10.79980              47.77492
   AR                    6.17671              18.47043              32.56300
   AR                   58.84851              31.02098              20.29695
   AR                   59.36180              22.35028              26.08722
   AR                   59.62784              46.78308              41.85571
   AR                   28.22399              21.69424               6.97035
   AR                    8.72203               5.32762               3.26993
   AR                   91.16238              26.06655              46.02867
   AR                   63.23577              14.26191              40.75387
   AR                   69.40912              51.16718              19.44296
   AR                   93.52867               7.37733              22.09277
   AR                   76.56908              40.24534               0.97537
   AR                   98.03207              48.73534              29.37080
   AR                   94.33642              52.04895              16.01973
   AR                  101.09739              17.63503              47.42192
   AR                   93.17044              10.60394              28.68195
   AR                   88.38785              37.90673              11.79282
   AR                   96.86757              51.04654               0.53915
   AR                   83.65385              44.62669              41.80119
   AR                   15.69786              13.74240               8.85069
   AR                   56.81963              49.88600              50.25911
   AR                   93.64667               7.26085              48.09966
   AR                   61.01878              33.03852              22.85272
   AR                   77.22486               2.32898              36.83441
   AR                   99.83487              51.68055              18.38955
   AR                   30.31696               5.19032               1.59497
   AR                   79.36500              13.83344              49.58993
   AR                   95.89646              37.27602              29.71814
   AR                   51.57871              54.25565              22.27820
   AR                   69.74319              43.62390              27.79725
   AR                   74.00491              42.95887              11.66625
   AR                   21.91710              31.98558               1.58731
   AR                   58.88289              38.27764              48.85811
   AR                   91.55594               3.94667              27.09695
   AR                   87.71872              24.20354              18.02100
   AR                   13.39649              11.63083              10.39414
   AR                   32.01359              32.92777              33.30257
   AR                   26.53956               6.41774               6.55251
   AR                   65.45704               6.03075               4.37108
   AR                   81.51902              35.94889              46.27820
   AR                   22.85540              16.56256               3.85676
   AR                   78.35444               2.40878              16.71705
   AR                   25.85185              19.20719              13.11182
   AR                   32.23351              11.91161              18.03360
   AR                   71.62219               5.82327              19.70631
   AR                  101.42461              45.79923              33.34071
   AR                   91.77888              22.07879              42.49320
   AR                   75.75940              19.94184               4.93569
   AR                   68.50283              24.95793              15.50794
   AR                   92.39132              45.35445              36.59634
   AR                   94.55585              26.24419              49.27477
   AR                   96.59083              17.32416              50.26449
   AR                    6.97741              14.19734              31.60234
   AR                   90.87486              34.95864              50.92980
   AR                   96.13044              36.45294              23.40454
   AR                   99.49691              50.45429              11.59855
   AR                   65.00879              10.33364              52.58805
   AR                  100.22494              45.49627              53.91556
   AR                   15.19633              24.26086              27.24470
   AR                   97.92072               5.64371              30.26699
   AR                   85.38037               2.72327              38.63190
   AR                   88.15598              26.30261              29.22504
   AR                  105.72516              53.19299              50.41334
   AR                   72.13258              24.67077              41.49907
   AR                   59.24398              48.89109              46.01975
   AR                   80.13332              19.70067              52.57118
   AR                   70.92188              15.63654              37.48404
   AR                   62.48445              14.63185               4.36188
   AR                   57.92479              45.91465               7.00647
   AR                  104.38252              14.22021              43.09935
   AR                  100.63399               4.97485              48.96519
   AR                   57.66712              51.33917              10.30727
   AR                   56.82838               9.45493              27.32436
   AR                   20.84553              28.97504               9.35264
   AR                   95.07833               7.38197              29.51474
   AR                  103.71066              31.19421               2.91058
   AR                   66.67206               1.80762               7.00272
   AR                   96.90456               0.07971              26.33108
   AR                  101.27553              45.52495              12.25014
   AR                   84.85964              51.25418              41.50959
   AR                   23.99915              12.94809              14.91164
   AR                   70.10689               3.39003               4.71483
   AR                   60.77273              13.41064              44.57424
   AR                   90.25639              28.19175              22.36014
   AR                   76.03187              50.82946               4.99637
   AR                   60.37592              29.45529              27.15213
   AR                   58.56677              48.66807              17.15543
   AR                  101.89505              28.75102              54.13904
   AR                   11.49919               7.94344               0.31740
   AR                   78.03854              25.94355              18.72196
   AR                   79.81960              17.88986              38.93441
   AR                   23.44891               3.94309               6.80005
   AR                  102.37623               5.14552              34.89585
   AR                   78.85326               6.73285               0.43403
   AR                   26.02040              28.14322              28.19448
   AR                   60.37819              20.46596              32.47304
   AR                   82.01731              17.76290              50.26588
   AR                   99.13302              53.85386              36.77856
   AR                   97.91451               3.76997              16.54120
   AR                   55.89701              16.16140               0.72645
   AR                  104.76391              17.15741              19.08466
   AR                   86.52502              26.70244               1.22796
   AR                   57.83832              35.48042              44.11531
   AR                   62.51374              23.12762              38.83757
   AR                   56.38949              28.84247               9.29609
   AR                   67.36918              10.86743              43.51650
   AR                   80.57964              27.20386              34.16503
   AR                   71.49854              28.19826              53.18311
   AR                   79.50948              29.09495              52.77344
   AR                    8.78587              32.46060              14.18398
   AR                   87.33069               8.83078               0.69034
   AR                   85.66531               4.94652              32.63191
   AR                   51.78965              50.00088               7.51987
   AR                   32.24015               6.50193              31.96387
   AR                   92.93727              24.64066              51.87524
   AR                   11.24483               8.35582               4.51710
   AR                   94.57633              17.57481              22.03965
   AR                   90.68681              46.86116               7.31898
   AR                   99.47456              22.07445              16.52922
   AR                   69.53623              17.57857               9.44139
   AR                   62.79211              50.10534              48.68468
   AR                   80.40538              43.94177              36.82117
   AR                   87.84422              21.18134              11.15258
   AR                   91.28273               0.39726              24.49067
   AR                   55.37157              23.67731              25.95913
   AR                   76.04614              29.19929              20.06835
   AR                    3.61174              26.62261               8.04161
   AR                  104.80984               3.19835               1.73791
   AR                   98.68184               3.80568              44.97651
   AR                  101.88317              40.44847              41.26328
   AR                   75.08247              13.91660              48.44204
   AR                   59.54304              26.60148               4.27150
   AR                    0.39004              15.36964              30.94477
   AR                   69.84937              32.96489               7.28151
   AR                   29.77450              27.30179              22.36856
   AR                   30.97327              29.52783              11.15464
   AR                   90.89055              31.26457              15.25213
   AR                   56.23668              33.37206              37.96436
   AR                   83.88404              26.43595              31.61814
   AR                  101.56983              49.60453              32.86146
   AR                   88.67029               1.85040              36.60601
   AR                   94.73786              40.37113              54.70527
   AR                  101.28048               8.26412               4.59330
   AR                   89.33696              14.13677               3.31944
   AR                   72.66766              34.57384               3.86827
   AR                   94.94172              53.02026              28.35131
   AR                   72.96049              11.08362              22.95263
   AR                   63.66510              41.57036              42.05612
   AR                   84.13865              44.61917              30.10582
   AR                    5.08947              30.10097               5.87888
   AR                    4.03343              16.41608               4.32249
   AR                   21.89180              19.23664              28.79741
   AR                   66.89188              10.19501               0.96877
   AR                   61.70011              35.92518              10.61795
   AR                   20.96718              33.08494              25.09576
   AR                   63.92510              25.08522              47.73135
   AR                   22.45091               8.84463               3.86607
   AR                   96.55764              45.73635               1.18063
   AR                   26.23159               6.35951              24.10602
   AR                   65.55562               3.26903              32.46001
   AR                   21.97032               4.25819               3.90782
   AR                   72.24880              45.14738              15.70480
   AR                   54.71138              26.28273              22.86532
   AR                   84.62128              20.99454              36.60979
   AR                   51.51705               2.50200              34.73513
   AR                   52.29090              53.38157              10.42381
   AR                   52.55108              18.14308              44.95968
   AR                   91.79752              39.10285              13.91412
   AR                    8.35656              21.71106              21.97564
   AR                   68.45387              10.11927              29.45718
   AR                   64.71831               0.60029              15.68646
   AR                   88.62056               0.16460              48.33820
   AR                  102.34955              53.44624              43.41581
   AR                   54.26980              25.24724              50.90199
   AR                  102.86830              49.07688              17.62278
   AR                   99.36334              35.98510              36.37146
   AR                   64.85005               6.32439              33.21454
   AR                   90.93672              40.28443              33.24218
   AR                   71.95218              14.76391               7.55271
   AR                   55.54089              25.20196               0.33556
   AR                   93.73156              22.24441              46.72580
   AR                  105.37483              40.85963              17.21053
   AR                   99.59637               7.83638              37.89585
   AR                   61.82145              19.65440              10.31084
   AR                   95.38241              28.16720              17.75639
   AR                  105.90095              54.97592              40.63443
   AR                   69.07060              30.19926              28.28897
   AR                   70.28297              52.44717              51.98701
   AR                   70.84699              25.45638               1.49621
   AR                   20.26719              24.06095              26.80018
   AR                   96.18733              14.76105              18.81142
   AR                  103.69537              53.26142               7.23141
   AR                    7.67411              10.29844              20.86578
   AR                   61.24423               3.25827              25.90879
   AR                   79.46838              31.99462              46.95393
   AR                   50.95913              51.66106               3.38246
   AR                   70.46946              36.55803              38.24128
   AR                   57.77805              38.61456              26.52083
   AR                   96.04211              50.14042              37.85677
   AR                   94.33786              26.57495              35.45369
   AR                   63.00708               6.71348              43.40786
   AR                   58.07627              39.61765              22.34682
   AR                   83.04700              47.02199              38.89018
   AR                   93.36317              24.12922              13.91038
   AR                   30.44065              32.58374              13.81512
