       266
            33.19108            67.16631
   AR                   89.38342              57.75922              46.98677
   AR                   82.01921               1.91938              64.06687
   AR                   59.72643               8.47230              32.34692
   AR                   85.87049              27.22709              63.59403
   AR                   67.51124              34.97499              36.99391
   AR                   58.42422              34.87911              56.45812
   AR                   61.27690              15.67935              38.57340
   AR                   73.78088               7.68169              51.96876
   AR                    6.75243              30.66334              27.33422
   AR                  104.54163              32.11408              53.39158
   AR                   76.20765              48.84899              24.25003
   AR                   60.86652              32.83365               0.81810
   AR                   23.64889              23.16050              23.46040
   AR                   66.13181              39.80566              33.73595
   AR                   97.36765              57.76350              27.13230
   AR                   98.38004              46.46523              53.95922
   AR                   80.08248              37.92931              51.50218
   AR                   14.87181               4.59748              27.23985
   AR                  111.64600              22.00378              19.15197
   AR                   70.70085              45.26579               3.53334
   AR                   78.32871              12.44963              46.28035
   AR                   24.40361              15.50574              18.04737
   AR                   83.00491              54.32230               5.48789
   AR                   90.80897              54.17575              54.56108
   AR                  106.94337              44.08183              44.06703
   AR                   85.85752              15.96580              48.53039
   AR                  103.50136              51.52305              38.07007
   AR                   53.75093              33.40357               8.83479
   AR                   83.09421              61.79083              20.49091
   AR                   69.21064              46.05029              16.91180
   AR                  111.23815               1.67351              33.63427
   AR                  112.28821              47.75867              61.03882
   AR                   80.38820              62.81102              36.09681
   AR                   58.27653              22.19474               3.42926
   AR                   55.85558              15.38127              61.51185
   AR                  113.54178              18.10637               1.66799
   AR                   82.68763              18.78486              28.68883
   AR                   79.06229              42.50676              10.20935
   AR                   57.06768              37.79128               9.51777
   AR                   83.10230              42.86047              45.71905
   AR                   95.33440              43.03028              48.53662
   AR                   76.77351              49.53594              49.73743
   AR                  100.14167              10.18943              36.89194
   AR                   84.12835               6.11340              43.24495
   AR                   61.43672              42.13739              24.20871
   AR                   30.47588              12.91127              25.29974
   AR                   53.93705              19.38707              41.33368
   AR                    2.17155              13.25246              12.24627
   AR                   69.63485              31.11601              47.80492
   AR                   84.62244              25.39906              57.45613
   AR                   83.89236              66.57830              29.37590
   AR                   70.73838              50.97090              18.36936
   AR                   31.72770               8.71277              15.68044
   AR                   89.17490              16.02278              10.23423
   AR                   52.37404              37.01598              31.86541
   AR                   76.67673              19.99438              59.47955
   AR                   95.72587               4.82495              47.84451
   AR                   70.56315              21.42692              12.76654
   AR                   68.43994              23.14400              38.33596
   AR                   79.52955              47.32538              31.35414
   AR                  111.41582              51.03841              38.19780
   AR                   53.21479              45.98566              37.37667
   AR                   92.82567              26.94653              65.42140
   AR                   71.76066              25.91985              38.92911
   AR                   55.82457              42.40941              30.47532
   AR                    8.50114              12.47668               7.62255
   AR                   89.05492              56.62090              61.23442
   AR                  111.30260              57.04546               6.50582
   AR                   72.99133              30.43453              49.13687
   AR                   99.89548              53.70164              64.02482
   AR                   56.73743              22.16785              50.68176
   AR                   71.62173               4.44480              64.38793
   AR                   24.80132               4.86262              21.96403
   AR                   63.05923               5.61977              17.38088
   AR                   76.44993              37.54905              42.96375
   AR                  113.71682               0.21217              54.03041
   AR                   12.70320              26.56748              16.45744
   AR                   53.77301              44.96019              29.83036
   AR                   26.49365              31.21680              27.77712
   AR                    9.67162              18.29306              18.56773
   AR                   12.92101              23.73114              27.89589
   AR                   80.39575               2.25442               6.24313
   AR                  100.94387              11.68103              20.51775
   AR                    1.76259              30.41314              10.59875
   AR                   86.41096              50.87267              66.75337
   AR                   61.13452              64.55525              14.28035
   AR                   91.83620              52.00574              34.82069
   AR                   97.94604              13.51922              12.63219
   AR                   80.81743              65.42096              42.59542
   AR                  116.38108              30.59883              36.89784
   AR                   74.98662              19.89204              18.04704
   AR                   87.25910              39.79835              10.59324
   AR                   54.08230              23.65093               7.41428
   AR                  112.79887              59.65357               8.53954
   AR                   30.59385              16.14576              27.18516
   AR                   50.47448               9.71492              21.19584
   AR                   98.36980              24.87162              22.68339
   AR                  112.45670              64.31900              48.35406
   AR                   74.55707              40.01120              41.58325
   AR                   74.10055              40.42814              26.13164
   AR                  110.84183              31.36202              44.86759
   AR                   97.85036              17.11075              28.93169
   AR                   63.05625              58.72557              63.54439
   AR                   99.40917              27.48260              43.12055
   AR                   86.17806               0.28495              43.02124
   AR                   98.38620              19.16675              25.90019
   AR                    0.51767              31.95281              31.58681
   AR                  116.37206              42.35743              13.32638
   AR                   58.41510              35.92325              31.16425
   AR                   18.12225              31.38216              10.84757
   AR                   68.08341              15.90836              22.39841
   AR                   79.10515              67.14755               2.66544
   AR                   73.64184              55.70541              32.15342
   AR                   97.29067              65.96792               1.69970
   AR                   32.91201              26.31559              24.75522
   AR                   69.50865              17.46535              50.45533
   AR                   62.45660              67.13332              20.34076
   AR                  114.38180              30.26458              33.94667
   AR                  106.39215              57.31907              35.25372
   AR                   52.11155              61.27118              26.60728
   AR                   96.05011              20.77263              12.59926
   AR                  105.06066              57.39844              11.46315
   AR                   75.98014               7.86096              21.35764
   AR                   62.08592              31.49196              38.57064
   AR                  112.46297              39.54249              40.53547
   AR                   28.63957              12.25389              16.98568
   AR                  101.49345              42.48412              53.35428
   AR                  111.40783              50.39299              44.36471
   AR                  109.17917              59.88806               9.08435
   AR                   25.34490              25.52637              24.36238
   AR                   57.55045              44.74491              65.41082
   AR                   69.53321              23.20002              17.39014
   AR                   77.27361              61.75287              47.57348
   AR                  100.97326               5.61140              36.65714
   AR                   73.56231              38.45106              53.89962
   AR                   61.16008              14.40604              62.33900
   AR                   28.00528              24.33198              31.93299
   AR                   26.10823              21.37180              27.28477
   AR                   61.65598              13.52701              44.48888
   AR                    4.60357              17.51858               5.62628
   AR                   78.16686              20.68574              51.13983
   AR                   59.57546              48.69422              61.25909
   AR                  115.56482              45.39709              38.18500
   AR                   53.05307              66.53740              23.69284
   AR                   14.26860               4.00775               6.38517
   AR                   91.81033              52.51526              60.13557
   AR                   97.40775              22.35621               7.40914
   AR                   98.02490              45.61825              40.11577
   AR                   55.30821              14.42249               8.37468
   AR                   68.93984              52.69028              33.83556
   AR                   95.43305              39.66117              62.85848
   AR                   80.84935              34.06823              48.60218
   AR                   58.27713              50.73939              12.95819
   AR                   64.99563               0.50585              34.63449
   AR                   94.43259              38.16121              57.93206
   AR                   53.63870              30.89365              45.99989
   AR                   17.00466               1.88979              28.85174
   AR                   53.41315              62.01546              39.79538
   AR                   67.65792              12.14405               5.46811
   AR                   19.04586              17.80009              23.68863
   AR                   65.36157              55.75781              38.33924
   AR                   66.72298              47.83279              48.64099
   AR                   71.90425               2.36453              14.86289
   AR                   72.25559              23.24385              25.10817
   AR                   86.41541               9.06887              17.80605
   AR                   78.16237              24.42185              62.04804
   AR                   18.51419              11.43923              12.56771
   AR                   60.93642               5.42861              10.84699
   AR                   22.63881               2.72795              13.46124
   AR                   78.57076              37.71725               4.34642
   AR                   86.53756              38.78743               1.12982
   AR                   95.31999              11.38739              26.21136
   AR                   18.37955              22.87193              28.92314
   AR                   90.11461               1.32521              21.82310
   AR                  115.43565              22.19834              39.84447
   AR                   54.75854              14.46864              49.66501
   AR                   87.38363              26.80391              41.40898
   AR                   57.36938              30.52575              63.52163
   AR                   61.52914               0.57126              38.06855
   AR                  101.63079              56.66790              56.42168
   AR                   62.16058              33.98301               6.41756
   AR                   68.47244              34.97881              12.50909
   AR                   86.03873              10.96779              42.19152
   AR                   95.38352              19.87369              53.05403
   AR                   78.84305              40.31955               7.43029
   AR                   79.31471              11.49822              14.97770
   AR                  102.53728               6.37010              57.22452
   AR                  103.18427              30.27801              20.11847
   AR                   90.69497              12.77019               2.92788
   AR                   75.06206              41.09403              37.70787
   AR                   81.77751              58.27420              38.12615
   AR                   53.12100              12.16495               4.69536
   AR                   96.00192              66.12464              50.46179
   AR                   97.65812              45.77411              21.69684
   AR                    3.19290              30.59171               7.65549 FRACTIONAL
   AR                   97.93911              34.62034               8.40819
   AR                  116.57012              49.05856               1.62984
   AR                   78.09370              59.30349               5.73406
   AR                   60.97562              35.72158              44.63809
   AR                  101.54535              43.98243              35.79338
   AR                  107.99723              65.91325              18.91642
   AR                   69.41722              27.40491              15.12758
   AR                   86.26943              33.01061              35.48829
   AR                   64.95607               9.32619              45.67913
   AR                   52.35774               8.14542              36.01069
   AR                   60.87115              38.29064              54.41548
   AR                   68.65178              32.82342               9.09206
   AR                   71.17658              58.58635              64.16776
   AR                   53.18092              57.15548              13.12544
   AR                   64.73714              65.33089              30.07276
   AR                  101.29037              55.01318              14.15579
   AR                  108.00117              47.85271               9.80654
   AR                   69.03952              43.48378              55.58639
   AR                   66.89786              18.66827              27.81772
   AR                   50.23280              36.45260               7.86376
   AR                   63.13342              39.43432              21.85589
   AR                   94.12573              52.34422              45.13016
   AR                   80.93150              11.09210               6.17587
   AR                   66.67087              41.79777              20.16627
   AR                   94.11275              20.15118              56.46955
   AR                   75.37493              49.97078              36.11285
   AR                  101.71344              45.29886              44.65194
   AR                   28.80890              19.26433              28.60011
   AR                   67.94111              27.94377              52.99055
   AR                   96.73927              29.64630              31.94202
   AR                   88.72140              22.92341              57.26668
   AR                  116.19888              50.14627               8.29653
   AR                   55.85924              19.98226              24.70406
   AR                   99.44836              58.05345               7.58511
   AR                   58.77139              33.10568              14.23724
   AR                  107.03362              19.73115              11.05190
   AR                   66.48586               8.98953              26.99839
   AR                  101.15890              29.10148              37.67021
   AR                   72.64500              35.29009              50.64359
   AR                  109.69616              45.02088              48.85549
   AR                   11.76031               8.01742              25.86622
   AR                  102.64640              18.67155              56.95338
   AR                  102.25766              25.37349              19.34112
   AR                   28.77166              14.07445               0.14782
   AR                   54.04959               7.32092              39.86379
   AR                   92.36965              60.18417              47.87694
   AR                   99.33906              64.71254              34.51483
   AR                  109.97548               1.47556              24.44979
   AR                   15.52223              32.28160              25.08929
   AR                   63.94492              39.11400              38.91467
   AR                   16.81338              21.07551               1.05543
   AR                   72.44422              62.18534              67.14665
   AR                   65.23012               7.58941              20.95632
   AR                   80.41295              21.39697              25.80559
   AR                   92.98793               1.25010              55.05849
   AR                   76.66217              35.38685               6.98269
   AR                   53.86297               5.15264              28.51314
   AR                  111.38695              63.64433               5.31206
   AR                   55.30462              51.82220              40.14859
   AR                   71.74847              59.36620              48.11570
   AR                  113.11774              65.98157              12.30110
   AR                   90.76964              24.09588              67.03967
   AR                   91.65037              55.38561              47.63142
   AR                   96.30038              27.82710              55.69746
   AR                   67.75463              28.09685              48.18790
   AR                   90.33012              22.27055              42.84553
   AR                  113.61940              11.42001              50.23871
   AR                  107.00947              54.53738               2.21287
   AR                   85.07760              59.78652              14.38506
   AR                   93.70431              27.92084              45.72051
   AR                   80.50661              15.87717              61.20175
