       421
            32.63104            50.69269
   AR                   63.17528              30.65941              31.97269
   AR                   58.55066              20.16719               3.61836
   AR                   54.23777              47.86975              18.53051
   AR                   86.82590              22.28428              45.54763
   AR                   89.83723              31.74071              25.19238
   AR                   67.02298              26.15704              22.64799
   AR                   65.25076              13.75651              41.65268
   AR                   66.94067              48.98418               5.15233
   AR                   27.13147              16.93009               7.78232
   AR                   90.34671              44.40172               9.92580
   AR                   86.82209              26.03319              29.20796
   AR                   67.24451              15.83348              45.32710
   AR                   67.80791              49.94710              31.99497
   AR                    6.67236               8.95467              15.43467
   AR                   19.37913              15.36578               0.75415
   AR                   27.46644               9.40767              12.76171
   AR                   93.52707              27.25036              23.92259
   AR                   65.86117               0.65449              49.38147
   AR                   10.94000              14.12375              25.92363
   AR                   62.12319              25.39456              30.12841
   AR                   93.06380              16.85691               0.59642
   AR                   67.57473              11.01233              41.38252
   AR                   81.05961               1.10698              16.59538
   AR                   79.27020              19.12574              48.27849
   AR                   30.99017               0.58823              18.92162
   AR                   78.26880              27.12725              43.08377
   AR                   48.95503              41.43659               2.90103
   AR                    0.02399              12.69875              26.44650
   AR                    5.97148              24.43706               3.22388
   AR                   56.50306              45.24233              14.55996
   AR                   81.97318              20.19867              32.81049
   AR                   86.94908              13.14778              27.27086
   AR                   55.47572              27.34419              42.77979
   AR                   22.86736              11.79996              24.81009
   AR                   84.86966              46.30451               1.05972
   AR                   90.84200              26.30194              44.56692
   AR                   73.64039              47.23623              21.36059
   AR                   86.40949              49.29618               9.56947
   AR                   62.52963              21.21201              37.25757
   AR                   29.66612              11.27363              26.11312
   AR                   87.61186              41.82684              19.00283
   AR                   62.26297              43.69120              20.15189
   AR                   50.31224               4.03219              25.08634
   AR                   10.97900               2.90758              21.90557
   AR                   82.71992              13.65093               5.01604
   AR                   77.05759              31.78802              49.58997
   AR                   53.14602              44.92329              22.24688
   AR                   70.35415              49.21350              23.26361
   AR                   59.12328               9.40212              15.43143
   AR                   94.72845              49.50865              38.45490
   AR                   68.64347              41.86294              27.94568
   AR                    3.46041              14.30258              19.96360
   AR                   30.39077              31.34242               6.54185
   AR                   52.70471              19.64283              35.44056
   AR                   15.03634              11.25480               8.41335
   AR                   96.36915              21.67658              39.37524
   AR                   50.33763              18.78466              42.34747
   AR                   98.67512              45.46564              15.75519
   AR                   81.53644              33.65180              19.66885
   AR                   55.61069              11.29877               4.12339
   AR                   84.42406               9.33407               3.93690
   AR                   68.85639               1.66090              21.35289
   AR                   70.22585               0.88099               7.08228
   AR                    0.71819              29.25521               9.58295
   AR                    7.31330              15.72814              21.18461
   AR                   61.00427              26.43433               4.72687
   AR                   59.85812              37.01505              31.10974
   AR                   93.84092               7.30642              50.50206
   AR                   77.75602              24.46500              40.12021
   AR                   83.26643              21.72874              28.14713
   AR                   62.37925              34.93906              20.02653
   AR                   95.17781              18.35106              22.22600
   AR                    6.75453              10.63061              26.42122
   AR                   93.99366              42.53249               9.65141
   AR                   71.11400              22.68721               2.92361
   AR                   26.79767              22.26967              29.03978
   AR                   87.60578              21.50502              34.00695
   AR                   93.66368              29.63757              29.84114
   AR                   82.38200              36.00023              12.59393
   AR                   92.17445               6.56764              43.63270
   AR                   25.31440              17.36817              11.43125
   AR                    1.27219              20.97315               0.70969
   AR                   76.20801              28.15269              27.07276
   AR                   60.49978              35.67584              17.03950
   AR                   61.68162               3.13039              39.32723
   AR                   26.94003               0.63890              26.54550
   AR                   69.48260              25.76840              26.67073
   AR                   95.06008              19.08156              45.27552
   AR                   58.54825              29.27502              34.93445
   AR                   86.79491               6.78090               1.70121
   AR                   50.74302              45.45842              20.33326
   AR                   53.24217              22.82894              13.67541
   AR                   71.22608               5.51506              38.74322
   AR                   75.93225              50.09149              17.02818
   AR                   62.29629              11.74439              40.49527
   AR                    7.21409              11.77750              20.99984
   AR                   85.81704               2.52854              13.16957
   AR                   24.43685              28.00025              28.03734
   AR                   76.97669               4.44186              16.99903
   AR                   19.29850              16.31492              19.57398
   AR                   59.88439              17.40361              38.77101
   AR                   95.56957              42.77549              34.92616
   AR                    6.61740              10.60488              11.86383
   AR                   94.80083               8.27246              41.44941
   AR                   95.15557              12.57874              29.07129
   AR                   80.86589               4.11959              27.26328
   AR                   83.88403              24.95142              27.18546
   AR                   78.25807              17.22070              14.89107
   AR                   90.88268              18.17953              33.92876
   AR                   88.25008              13.96730              11.11315
   AR                   83.38767              36.30188              23.27942
   AR                   97.19956              15.09966              45.46389
   AR                   51.10353              13.93101               8.68419
   AR                   69.68369              29.65398              27.27587
   AR                   56.22468               0.75220              10.64069
   AR                   83.96760               2.23019               6.09148
   AR                   18.48337              13.00300               3.20227
   AR                    6.60464              17.25824              10.86362
   AR                   85.49049              47.83466              18.08827
   AR                   27.80107               3.80526              10.66881
   AR                   19.26028              10.12673              27.17536
   AR                   99.31773              10.52168              28.49808
   AR                   25.63789              29.48916              13.62391
   AR                   66.76312              18.82979              14.26329
   AR                    2.05184              27.02129               4.79012
   AR                   80.22039              50.23663              32.54951
   AR                   80.41848              14.73570              38.10182
   AR                   50.05789              30.94129              22.28294
   AR                    7.88865              19.34290              22.56884
   AR                   93.59960              20.02557              36.05538
   AR                   56.74608              28.77370              14.46369
   AR                   91.28582              41.22085              25.13591 FRACTIONAL
   AR                   54.98132               2.41132              18.07824
   AR                   67.10870              26.55064              34.38139
   AR                   49.23407              41.99349              17.26921
   AR                   85.12775               2.10688              34.18076
   AR                   91.76468               6.01974              28.55321
   AR                   95.14138              25.27603              36.58249
   AR                   19.81398              29.11306               7.00022
   AR                   80.19526              29.36031              45.40322
   AR                   74.14856              36.00359              26.40960
   AR                   10.50827              22.37883              27.65481
   AR                   80.14036              28.33937              22.88758
   AR                   73.77959              37.92105              42.42794
   AR                   97.32495              14.99919              14.69865
   AR                   68.75735              28.64357              18.22602
   AR                   95.93601              47.66931              18.00218
   AR                    4.61560              28.13645              19.50928
   AR                   24.71096               9.69489               2.03798
   AR                   19.14173              32.55164               9.98574
   AR                   99.19327               1.71457              45.86812
   AR                   69.78075              27.18193              29.67011
   AR                   81.13999              39.03682              13.95065
   AR                   59.03394              25.24416              44.50650
   AR                   93.03173              17.63132              42.94072
   AR                   52.25706              14.42516              30.06069
   AR                    2.71064              12.53920               3.50972
   AR                   71.91854              18.93664               3.40083
   AR                   75.73855              29.22462              32.36919
   AR                   85.16269              25.35406               8.77484
   AR                   93.96802              45.64675               7.80776
   AR                   52.60551              50.49018              27.25571
   AR                   67.50103              34.00036              20.52719
   AR                   52.09865              20.12528               5.25969
   AR                   62.81910              11.02584               9.66173
   AR                   99.55821              14.12034              11.84486
   AR                   59.35980              18.54002              14.02400
   AR                   29.47891              19.47718               6.90200
   AR                   53.74280              50.60025               2.38306
   AR                   54.14299              38.29227               0.72378
   AR                   88.90113              49.62787              22.36019
   AR                   60.37131              29.25546              44.05361
   AR                    9.41779               6.88123              12.77530
   AR                   23.42452              21.11403              11.00120
   AR                   83.44191              13.63919              12.85345
   AR                   95.45093              26.72633               8.85076
   AR                   70.34676              35.82312              11.86432
   AR                   70.22402              39.40982               0.11322
   AR                   77.23197              16.70823              36.19309
   AR                   75.93924              21.01938              10.60436
   AR                   76.17663              38.58533              29.89254
   AR                   56.80715               4.47907              15.55922
   AR                   52.96180              26.96269              12.95836
   AR                   58.91317              43.34880              22.86587
   AR                   79.41761              33.73446              46.22109
   AR                   95.32912              47.77825               4.27719
   AR                   68.39273              20.83568              16.41051
   AR                   91.58363              27.62162               9.29061
   AR                   23.21892              25.75094              31.72843
   AR                   18.56936              25.48759               9.05228
   AR                   86.25946              50.50729              14.75474
   AR                    6.57138               3.31445              26.46453
   AR                   56.94319              23.96948               8.62217
   AR                   81.31898              31.35943              15.77116
   AR                   80.09864               3.98239               0.43907
   AR                   15.04146              16.21879               3.07582
   AR                   81.69290              38.73368              48.09626
   AR                   61.62340              47.18065              12.33143
   AR                   25.50542               3.67033               7.21414
   AR                   69.18725              27.46107               0.04376
   AR                   28.19931              26.61643               0.96112
   AR                   20.14630               8.32085              30.05822
   AR                   79.02988               3.04040              13.33644
   AR                   68.44288              13.52950              36.20296
   AR                   97.62325              47.50146              26.92731
   AR                   77.10171              12.62458              36.69351
   AR                   69.86665               8.69913              11.43867
   AR                   99.31765              44.91400              10.65707
   AR                   69.00890              30.47837              35.64706
   AR                   75.31091              23.96043              22.89683
   AR                   50.79573              18.89988              38.61120
   AR                   79.61057              29.31662               3.73423
   AR                   96.62495               2.87665              33.19596
   AR                   84.59888              40.84759              22.08337
   AR                   30.02456              24.90783              17.34783
   AR                   23.69332              12.11678              28.38974
   AR                   59.22209              43.20885              27.48767
   AR                   76.48001              29.22907              45.18444
   AR                   49.72514              41.75557              48.09022
   AR                   62.07973              39.80525              28.52940
   AR                   76.43515              29.93145              42.09568
   AR                   68.00979              42.94529              38.04546
   AR                   77.97773               9.13986              11.51420
   AR                   28.51531              28.36326              18.84511
   AR                   66.16447              17.36390              31.04911
   AR                    5.56876              25.09070               9.96906
   AR                   75.42853              44.86646              33.15626
   AR                   85.58117               0.07000              46.56484
   AR                   59.72360              37.48412               6.77315
   AR                   90.63768              36.79447              32.54272
   AR                   77.53369              37.43176              40.79813
   AR                   61.72484              39.80639               3.09962
   AR                   19.04893               7.06669              15.06443
   AR                   79.32652              49.49938              27.36277
   AR                   90.56493              48.59319               0.98884
   AR                   70.99731              14.89143              42.91708
   AR                   14.08651              20.52000              10.04468
   AR                   75.46441              11.15536              42.56422
   AR                   30.14795              20.93097              14.74210
   AR                   96.74239              42.70052              13.26847
   AR                   91.75619              35.31072              28.78989
   AR                   63.94725               0.77736              12.29131
   AR                   85.96314              43.16174              32.44802
   AR                   62.71069              17.67766              45.58572
   AR                   97.69365              32.58095              37.94778
   AR                   26.19095              16.50115              31.98488
   AR                   52.77543               2.65380              38.01172
   AR                   96.35781               8.72622              30.60014
   AR                   64.25559              11.57005              46.74723
   AR                   66.64313              49.50207              46.37661
   AR                   50.71840               4.39998              35.34474
   AR                   49.97902              24.75554              40.50309
   AR                   50.43003               7.29638               6.80147
   AR                    6.20613              32.26035              25.91163
   AR                   74.43906              40.58769              20.41101
   AR                   89.19987              27.73447              22.19058
   AR                   74.82463              28.93816              48.57912
   AR                   98.52773              28.58435               0.73097
   AR                    2.53039               7.00261               5.14338
   AR                   85.95563              32.31469              23.89275
   AR                   58.21849              19.88745              48.50904
   AR                   12.24671              21.27419              17.47671
   AR                   85.41366              44.07433              27.57740
   AR                   97.15614              18.92646              41.56990
   AR                   57.61242              43.81553              44.59858
   AR                   82.00687              46.81103              49.48246
   AR                   73.34589              39.44618              14.39391
   AR                   87.73999              12.57920              18.19484
   AR                   82.91010              37.95386               5.52150
   AR                   93.62738              29.84091               7.40386
   AR                   95.53957               9.97426              14.38592
   AR                   30.73665               4.85807               9.13664
   AR                   71.40027              12.69313              13.72358
   AR                   69.47370              39.08854              34.62572
   AR                   79.41605              12.72125               4.28754
   AR                   78.42792              49.09878              37.81278
   AR                   85.77891               0.23289              29.17505
   AR                   21.87508              17.14565              12.72017
   AR                   19.91262               5.36804               1.58120
   AR                   49.63082              44.70651               0.87642
   AR                   68.39142              38.10914              13.09973
   AR                   63.39067              36.81943              38.44666
   AR                   50.05205              24.63365              13.28779
   AR                   80.37543              26.58945              38.60978
   AR                   17.29751              17.98922               7.04454
   AR                   28.42646               4.06219              24.51107
   AR                   31.62311              12.09441              29.93632
   AR                   59.72246               1.32328              19.78217
   AR                   87.68678              10.86125              35.08753
   AR                   19.76721              11.47107              20.65914
   AR                   63.50181              15.85440              22.89547
   AR                   61.37196               4.53929              14.88262
   AR                   77.33643              12.19241              50.16865
   AR                   84.30852              14.80654              19.31128
   AR                   60.37193              45.68878               7.63192
   AR                   55.63353               7.67275              33.66863
   AR                   63.04911              43.67865              48.11468
   AR                   92.34654              10.96650              21.03333
   AR                   94.89556              15.11883              34.40569
   AR                   85.87478              32.40176               9.11253
   AR                   52.04063              13.94210              13.68283
   AR                   56.28613              46.37100              47.39075
   AR                   70.36894              41.91620               5.56339
   AR                   82.21050              17.11598              38.86650
   AR                   72.96924              34.54834              13.16723
   AR                   12.28959              11.74819               5.20196
   AR                   66.68948              43.39894              33.46470
   AR                   61.95150               3.35808              29.64574
   AR                   85.24983              43.31021               3.23806
   AR                   94.09884              37.93270               1.43756
   AR                   65.02049               2.07073              36.21591
   AR                   54.52636              40.85460              36.76784
   AR                   98.48006              39.09812              48.92701
   AR                   85.44303              45.62956              10.81967
   AR                   88.60412              44.10496              26.04415
   AR                   88.36984              18.23113              16.66890
   AR                   58.65597              49.01618              48.92427
   AR                   31.55061               5.00035              17.44711
   AR                   85.33722               2.69229              27.09766
   AR                    8.06262              21.59829               9.95098
   AR                   84.91484              31.76742              18.26866
   AR                   56.88144              18.93833              18.21286
   AR                   57.52507               6.26594               9.43907
   AR                   10.97266              10.09142              25.98164
   AR                    9.63872              13.32351              32.53418
   AR                   96.84885              27.74847              48.25433
   AR                   85.69068               5.68805              28.03744
   AR                   68.02133              21.24977               5.80457
   AR                   98.26153               4.57979              18.42407
   AR                   19.46785              27.84461              22.84131
   AR                   79.11550              22.46351              43.24470
   AR                   73.53747              32.86384              42.86839
   AR                   86.89641              33.69448              29.42550
   AR                   58.40514              41.56343              40.62446
   AR                   26.67967              27.22797              21.68848
   AR                   58.26003              30.21459               6.71908
   AR                   52.62120              21.86598              31.67467
   AR                   73.55638              15.98909              30.34842
   AR                   69.39881              33.43016              39.81418
   AR                   87.00769              25.99755              45.22944
   AR                   95.20032              13.24973               8.87864
   AR                   50.56146              46.82055               7.83218
   AR                   82.90111              49.44724              43.71446
   AR                   91.45403              15.04688              11.54792
   AR                   70.90516              24.11238              23.73916
   AR                   55.83345              46.77505              11.21412
   AR                   27.43833              31.86389              16.86079
   AR                   53.60833              15.39548               4.17043
   AR                   50.01011              23.95894              44.83447
   AR                   24.56012               3.59085               0.17596
   AR                   76.99181               1.86113               1.83807
   AR                   76.18039               8.70626               2.28461
   AR                   97.45860              17.56352              38.26831
   AR                   31.96142              14.86440              18.06264
   AR                   85.89509              30.42191              28.34921
   AR                   73.32566              17.95790              34.86386
   AR                    8.74736              12.21298               4.17573
   AR                   66.44242              31.16900              41.89690
   AR                   87.90003              47.92523              28.42175
   AR                   75.92644              17.37989              41.09466
   AR                   12.38496              30.13536               3.49274
   AR                   48.99205               9.84971               3.10465
   AR                   12.69700              15.49935               6.42272
   AR                   81.79113              49.55265               4.74783
   AR                   54.16959              35.36619              14.63521
   AR                   63.63844               6.41288              30.24020
   AR                   88.64245              14.65757              24.29427
   AR                    5.53798               2.93873               8.92990
   AR                   97.47091               8.45185              24.20753
   AR                   98.59245              32.15329               4.96194
   AR                   80.78932              42.54575              31.74562
   AR                   85.26532              27.47669               5.61407
   AR                   90.90071              13.24613               1.79242
   AR                   64.84812              17.92639              40.40690
   AR                   77.37669              48.01728              22.15657
   AR                   69.29878              50.26924              50.56350
   AR                   76.00832               0.19529              36.48473
   AR                   66.27920              18.88243              21.81339
   AR                   22.45093              24.91302              10.08718
   AR                   77.36614              36.32667              15.24073
   AR                   11.71918               3.20912              18.78654
   AR                   26.36793               8.06271               6.88057
   AR                   69.60031              15.36062              26.80909
   AR                   93.31669              30.40432              49.88187
   AR                    8.23076               6.94837              30.81148
   AR                   90.96408              13.91048              42.26263
   AR                   81.42751               8.61787              12.30559
   AR                   97.88725               3.55605              42.14578
   AR                   93.05796              34.58139               4.52697
   AR                   85.40986               9.74697              49.87295
   AR                   56.25001              42.01258               5.60891
   AR                   65.07391               6.18558              50.06103
   AR                   63.88956              23.23152              48.34709
   AR                    6.19022               6.22747              23.88300
   AR                   74.18589               4.43518              39.69744
   AR                   61.85789              23.27152              13.72950
   AR                   67.31993              46.78421              29.82516
   AR                   93.68000              22.33419              25.10639
   AR                    0.96049              13.70310              22.27053
   AR                   71.36779              12.79353               3.11738
   AR                   53.47233              15.60126               7.54795
   AR                   12.11048              17.72719              17.10536
   AR                   27.81092               1.17457              20.03228
   AR                   73.84084              38.60378               3.81036
   AR                   83.63675              12.79272              35.11541
   AR                   23.45093              31.18080              26.72531
   AR                   76.29084              20.08919              33.02205
   AR                   86.58477              32.24883              14.66140
   AR                   63.14743              25.04581              37.46443
   AR                   83.50271              22.73636              46.49911
   AR                   82.07300              21.54606              10.61927
   AR                   86.14217              24.15223              49.76756
   AR                   91.01283              30.19214              47.00948
   AR                   51.62667              45.34202              46.77926
   AR                   84.39556               3.85610              46.19212
   AR                   50.54822              41.06674              12.40548
   AR                   50.46389              10.42308              12.42073
   AR                   50.44153              20.52675              16.78945
   AR                   90.08634              21.76940              47.48644
   AR                   88.46405              38.67423              24.72452
   AR                   92.71864              40.19923              16.07445
