       461
            31.07517            49.47494
   AR                    7.17267              26.98142               8.63443
   AR                   66.06849              48.34748              17.21908
   AR                   62.10062              11.16857              24.80239
   AR                   53.42905              46.02291              20.51694
   AR                   50.36045              18.49209              49.27550
   AR                   60.11574              30.15903              16.09627
   AR                   83.05455               0.95728              30.02435
   AR                   69.12508              23.55001              25.24208
   AR                   51.81559              29.75267              28.29405
   AR                   57.58219              17.94197              42.35433
   AR                   90.58417              11.39965              39.06020
   AR                   68.54981              32.29089              12.53439
   AR                   75.68125              22.69132              34.82627
   AR                   20.01556               3.03634               0.77361
   AR                   55.45918              37.12359               0.39061
   AR                   83.67096              33.54093              48.12738
   AR                   75.70012              13.67248               0.46043
   AR                    9.48940               2.70495              16.63508
   AR                   81.63998              12.15599               9.48152
   AR                   65.67372              23.97223              12.54441
   AR                   82.58116              35.24031              23.31787
   AR                    1.48592              17.91521              10.10855
   AR                   58.49313              47.02427              36.46573
   AR                   73.18816              15.42520               1.41550
   AR                   58.61555              44.70231               7.63873
   AR                   50.38289              28.84076              35.80482
   AR                   91.53356              10.15107              46.63374
   AR                   63.59487              34.82754              29.87389
   AR                   95.61164              42.32877              31.72389
   AR                   48.95361               3.59215              13.96535
   AR                   59.11518              23.01205               8.33619
   AR                   89.73842              35.75999              11.47978
   AR                   78.41702              25.71870              10.20563
   AR                    1.04526               0.51082              26.88492
   AR                   74.29623              41.04327              35.77508
   AR                   20.38591               0.96607              28.10880
   AR                   50.89745              34.22004               3.35874
   AR                   60.36145              40.54430              17.37573
   AR                   28.74970              24.82479               7.79767
   AR                   87.57251              38.37737              15.89765
   AR                   52.38005              33.17690              14.54226
   AR                   71.00787               5.06319              21.74588
   AR                   60.03120              11.45365              27.66884
   AR                   90.44584              43.32873              14.33791
   AR                   69.28652               6.81391              32.48731
   AR                   85.69255               0.01990              28.30307
   AR                   68.59311              22.60012              32.19349
   AR                   92.41047              35.43592              32.94603
   AR                   92.34489               1.72186              38.62219
   AR                   83.31086              32.47743               9.27241
   AR                   84.67684              29.12388              28.18090
   AR                   10.71183               7.14141              17.65466 FRACTIONAL
   AR                   82.44312              36.85657              27.77036
   AR                   59.89966              47.15798              14.07160
   AR                   58.09607              36.83414              42.59191
   AR                   25.55202               2.66731               7.03811
   AR                   78.45157              41.16152              49.34688
   AR                   71.48445              31.82641              15.30553
   AR                   90.97907              38.13203              49.18923
   AR                   94.54743              26.81577              49.44903
   AR                   52.41786               3.45255              13.73050
   AR                   62.50079              13.89069               0.44497
   AR                   47.59931              17.97623              26.21284
   AR                   78.71136              45.37491              17.43494
   AR                   88.26152              40.90202              41.29076
   AR                   48.57138               8.17967              33.44069
   AR                   96.04339              47.16635              39.28874
   AR                   84.15273               3.52641              20.64542
   AR                   66.79962              12.38401              35.47045
   AR                   84.63214              36.30648               2.67090
   AR                   86.59773               8.56576               7.64602
   AR                   76.78839              21.61243               8.74399
   AR                   52.59733              30.44287               3.00119
   AR                   25.41186              12.80474               8.82196
   AR                   23.51613              15.84045              19.44892
   AR                   69.52927               0.54383              24.71846
   AR                   55.78602               0.57901              44.55824
   AR                   64.98389              31.39547              31.67349
   AR                   11.41967               5.92004               1.51487
   AR                   49.07212              30.87778              48.41868
   AR                    5.15069              29.34229              10.65973
   AR                   61.79787              38.38626               1.19013
   AR                    7.06394              18.00183              15.48820
   AR                   75.44314              36.67620              22.03254
   AR                   66.55339              33.06228              27.30920
   AR                   25.64480              24.40903              11.10050
   AR                   83.03768              41.72908               4.04311
   AR                   81.40987              18.57687              11.50533
   AR                   92.68725              27.49646              22.75006
   AR                   76.11468              26.07344              47.71048
   AR                   55.98324              29.84751               2.13834
   AR                   88.21026              10.18133              35.96549
   AR                   50.06390               8.75337              38.97336
   AR                   81.89245              11.97509              43.99868
   AR                   30.75724              10.99059              21.29343
   AR                   53.42353              27.47105              37.02313
   AR                   56.56456              30.30846              47.66399
   AR                   68.98816              39.72031               3.22676
   AR                   92.32726               5.78142              27.74823
   AR                   78.69313              24.88702              46.12850
   AR                   69.31153              44.03127              26.29130
   AR                   65.32102              16.38389              36.73671
   AR                   73.46317               8.72265              14.61259
   AR                   81.67666              22.90452              32.92739
   AR                   49.16765              49.05980              48.14384
   AR                    0.13593              16.60446              20.28531
   AR                   80.97542              19.52185              28.65895
   AR                   72.65998              14.88259              18.24027
   AR                   86.15354              15.81302               5.97508
   AR                   50.42942              11.45099              32.58650
   AR                   63.69055              18.41281               0.62991
   AR                   29.31304              10.12599              25.75061
   AR                   55.91290               3.34686              17.94659
   AR                   91.10520              47.04378              12.22804
   AR                   72.48023              44.40107              46.51957
   AR                   64.71908              47.60100               8.72836
   AR                   28.50099              11.72045              29.48719
   AR                   62.63219              21.56889              45.46420
   AR                   58.05171              27.47591              35.41327
   AR                   94.66138              41.59701               4.23888
   AR                   81.87178              44.27643              16.72951
   AR                   10.87937              18.57973               8.62784
   AR                   90.39252               0.99199              29.59704
   AR                   68.58017              15.29424              23.99290
   AR                   61.38747              47.58413              27.49290
   AR                   66.31839              26.15262              17.60854
   AR                   90.63009              34.28294              43.28055
   AR                   60.38011              24.56668              40.20590
   AR                   88.69615               5.50136              38.67599
   AR                   47.39870               6.42766              11.84902
   AR                   82.57824              31.62558              43.83202
   AR                   52.66727              21.84123              14.19510
   AR                   77.03506              20.41334              24.97158
   AR                   84.14931              22.03987              10.00773
   AR                   87.63715               8.73855              27.61197
   AR                   53.85990              30.09877              17.63006
   AR                   59.83107              13.24913              18.10836
   AR                   48.74809               5.84956              27.75613
   AR                   49.12650              41.37216              44.90797
   AR                   80.30125              18.11420              21.99977
   AR                   91.45176               1.90533              49.32834
   AR                   63.48435              35.99592              18.33595
   AR                   21.65888              21.51511              14.87938
   AR                   25.85146              22.28317              25.79127
   AR                   67.94918               5.00390               2.16802
   AR                   92.64645              28.70424              42.69379
   AR                   91.01731              41.13658               9.99507
   AR                   13.61645              14.12204              11.19137
   AR                   93.50192              36.64915              14.19225
   AR                    0.86674               5.91134              25.67548
   AR                   95.40459              33.74561              29.41574
   AR                   65.95286              25.13471               8.19361
   AR                   64.97327               7.71203              48.61976
   AR                   78.04375              10.73211               1.81214
   AR                   89.77656              27.70198              40.58857
   AR                   82.37183              21.36961               4.20995
   AR                   58.31214               1.22066              16.31959
   AR                   60.47648              12.12560              21.25108
   AR                   94.36701              10.62227              20.91709
   AR                   73.83237               6.99368              26.71891
   AR                   95.99018              21.62285              23.38007
   AR                   61.64713               1.98124              35.09650
   AR                   58.07859               9.94798               0.90728
   AR                   52.33011              29.66070              41.82821
   AR                   59.97248              29.65206              42.88732
   AR                   72.95088              19.19541              44.81628
   AR                   91.43914              44.28662              40.90712
   AR                   49.83748               3.59717              32.22721
   AR                   27.92761              23.01927               0.29010
   AR                   28.01797              15.57080              19.34342
   AR                   83.13127              18.00431              42.12170
   AR                    5.03744              26.92259              24.71583
   AR                   86.34086              12.60210               7.49620
   AR                   48.33521               9.78042               1.16202
   AR                   53.73043              43.29367              33.58641
   AR                   81.06519               1.38653               7.02792
   AR                   72.35282              10.71943              11.33055
   AR                   66.16404              48.98837              25.17350
   AR                   24.74029              30.62515              13.59418
   AR                   95.97192              47.39383              42.79890
   AR                   81.93704              17.75576               4.31754
   AR                   87.86971              33.09016              18.15075
   AR                   86.10538              42.98886              15.79759
   AR                   81.76835              42.31246              21.99414
   AR                   87.89965              12.95337              10.63116
   AR                   57.12819              12.81015              22.67917
   AR                   66.50767              19.72092               2.47011
   AR                   12.74854              10.68198              20.38688
   AR                   47.19783              37.39106              28.71720
   AR                   92.09060              40.88034              40.06292
   AR                   92.44974              29.58862              16.00389
   AR                   87.85577              27.67249               3.68905
   AR                   57.39107              21.84761              15.85210
   AR                   17.92798              24.98037              15.62711
   AR                   16.35325               3.62902               2.44800
   AR                   64.71976              37.03879              48.89508
   AR                   61.14915              10.84978              46.63917
   AR                   47.43951               3.62324              37.86192
   AR                   55.70302               1.30847              12.60332
   AR                   58.76430              43.47495              26.92122
   AR                   65.19145               3.35067              31.82341
   AR                   53.81290              38.05199              28.46688
   AR                   76.19094              30.86782              12.04967
   AR                   72.20195              24.59882              12.13547
   AR                   96.03247              25.36076              42.78834
   AR                   71.11457              13.75139              13.59837
   AR                   76.58015              12.36153              34.23266
   AR                   75.69805              15.55129              13.03726
   AR                   92.15985              37.50723              28.91692
   AR                   76.40656              13.61070              17.38881
   AR                   53.26429              27.51934              15.60129
   AR                   52.25045              18.27442              27.42917
   AR                    8.54911              19.95657              12.50127
   AR                   23.70825              17.43275               9.22342
   AR                   74.48280               2.28356              15.14089
   AR                   74.06028              11.95606              37.69683
   AR                   15.88098               0.59997              12.36968
   AR                   81.50008               2.66560              34.96412
   AR                   71.29787              21.29422               2.21559
   AR                   76.66906              46.87519              20.76692
   AR                   89.29829              31.90052              46.51278
   AR                    6.92770              15.18037               3.27177
   AR                   22.28686              27.75003              11.68132
   AR                   25.44027              16.70170              21.83954
   AR                   75.31824              47.63016              11.23318
   AR                   62.88284               5.05375              42.11899
   AR                   75.50927              46.19937               7.48746
   AR                   71.44117              25.21597              29.87146
   AR                   94.97862               6.60952              36.76799
   AR                   49.01391              48.03658              10.28014
   AR                   49.69516              44.21799               9.86720
   AR                   93.89474              15.58584              29.57356
   AR                   22.74928               4.95881               8.45682
   AR                   29.01177              13.70162              23.64800
   AR                   91.21326              46.77568              37.67769
   AR                   77.80765              17.12837              47.08946
   AR                   48.03792               2.16593              40.74987
   AR                   60.41075              39.21743              20.70650
   AR                   88.41258              22.00210              36.33151
   AR                   16.12689               7.90817              28.54881
   AR                   18.20522              21.33745               2.59278
   AR                   58.31258              23.37278              18.58874
   AR                   61.72573              47.67976              10.08925
   AR                   93.11175              44.60948              33.51416
   AR                   50.36414              26.79730              42.64882
   AR                   78.61366              29.52906              41.87667
   AR                   65.45018               3.83713              11.81854
   AR                   76.34199              34.65988               9.32038
   AR                   86.25213              16.10214              39.64230
   AR                   55.64653              23.44714              46.93102
   AR                   58.86580              47.98376               6.82529
   AR                   55.37386              14.76879              19.75678
   AR                   94.90051               1.62847              24.36791
   AR                   61.38731              43.73006              14.48376
   AR                   64.97222               8.96678              36.78511
   AR                   21.33636              12.77195               9.42410
   AR                   78.38552              48.76042              10.94309
   AR                   57.41356              24.72934              31.71006
   AR                   56.56234              33.28175              29.93116
   AR                   54.74045              25.46871              19.70984
   AR                   13.26077              23.33450              30.96100
   AR                   21.00792              13.62217              19.23255
   AR                   22.18393              18.99698              18.60149
   AR                   65.92875              45.39649              27.46536
   AR                   54.44744              12.44867              38.00576
   AR                   86.39372              17.00005              29.64600
   AR                   55.80882              24.98994              13.02257
   AR                    9.36808              29.75278              30.35930
   AR                   56.89773              37.15582              31.81103
   AR                   90.57323               4.32707              30.81636
   AR                   72.55467              16.85264              25.62858
   AR                   94.93591              11.14709              38.58522
   AR                   57.66778              18.57191              23.85435
   AR                   61.31263              24.97601              33.55547
   AR                   55.47793              32.97785              17.36381
   AR                   86.32260              48.20633              13.19141
   AR                   50.02912              13.23549              38.67815
   AR                   84.05759              35.91981              11.74755
   AR                   74.58565              46.75096              32.42890
   AR                   60.44497              20.73144              38.89867
   AR                   81.24745              37.16154              20.29145
   AR                   69.64440              43.20386              11.27783
   AR                   84.22550               2.17093              13.34483
   AR                    2.07996              13.84805              21.43055
   AR                   92.79340               4.73723              48.18341
   AR                   65.24817               3.64049               4.75311
   AR                   75.42947              28.07196               8.46266
   AR                   67.35286              35.74432              32.02111
   AR                   16.92320              12.37462              24.01096
   AR                   54.75966              38.98034              16.04430
   AR                   64.45642              29.64114               8.17426
   AR                   69.47397              37.59672               0.43305
   AR                   69.61858              26.82065               5.39685
   AR                   86.66078              22.76456               7.38993
   AR                   81.44906              10.44289               6.48695
   AR                   82.23339              43.88063              13.15963
   AR                   94.13538              43.58920              48.53468
   AR                   17.79900              21.32179              23.40651
   AR                   95.07735              25.23436              24.05338
   AR                   82.67004              46.96311              29.37717
   AR                   49.06972              19.86788              40.57898
   AR                   78.31651              44.29498               3.37496
   AR                   65.52136              21.42743              34.04158
   AR                   61.12583              39.63047              39.40873
   AR                   88.76732              49.02452              26.27060
   AR                   90.66256              38.52024               7.92811
   AR                   85.33635              43.55220              23.36496
   AR                   12.53887               1.62815              12.88881
   AR                   54.47137               6.65292              23.19575
   AR                   64.91953              12.48156              25.56821
   AR                   64.87488              13.49739              44.27224
   AR                   92.33768              12.23257              17.07850
   AR                   95.30343               3.59446              44.98055
   AR                   63.32048              28.35707              44.11910
   AR                   66.89756              28.76517              35.83828
   AR                   90.25663              21.09513              29.23312
   AR                   25.35798              20.63474               8.31276
   AR                   50.22808              42.88115               0.88801
   AR                   84.78916              21.45406              37.33790
   AR                   20.32654              21.59160              18.90544
   AR                   56.85135              46.42333              33.34050
   AR                   18.39542              28.75491               8.15076
   AR                   81.50680              33.53483              30.03293
   AR                   80.30288              25.61970              36.34717
   AR                   85.91686               5.95416              10.11433
   AR                   80.61694              29.97268              38.40048
   AR                   67.12012              10.26532              20.76506
   AR                   57.02640              19.78023              37.92908
   AR                    5.07145              23.84093              16.91972
   AR                   53.39523              37.76919              33.33330
   AR                   50.46731              31.74480              23.61230
   AR                   53.43257               9.18298              10.09490
   AR                   77.75743              31.74160              19.43275
   AR                   28.89079              28.15693              22.16846
   AR                   72.32829              11.45345              20.76412
   AR                   73.64125              28.54618              19.45936
   AR                   75.03364              35.37909               0.65363
   AR                   56.02655               9.20114              29.89512
   AR                   52.43012              26.25557              27.96607
   AR                   57.49684              36.81496              13.27171
   AR                   49.80770              10.61905              18.46438
   AR                   81.18054              16.82827              15.42179
   AR                   52.80190              14.37203               9.74169
   AR                   89.12930              37.91397              32.11470
   AR                   75.87761              31.77490              33.37409
   AR                   50.04627              41.67802              32.60285
   AR                   52.16819              30.58819              32.45365
   AR                   71.73206              17.87494              33.65510
   AR                   80.78532               4.59612              17.94055
   AR                   52.80428              24.20480               3.90324
   AR                   68.48529               1.60250              42.03415
   AR                   79.18072              14.44794              49.22900
   AR                   12.91704              21.70573               3.28570
   AR                   71.96149              31.24095              29.28743
   AR                   74.45812              45.11155              13.67855
   AR                   66.54258              14.75919               6.39200
   AR                   62.89873              18.79002              17.94543
   AR                   47.31052              18.46513              16.58728
   AR                   50.90736               4.45885              43.40693
   AR                   86.95941              41.39304              32.65681
   AR                   17.44728              10.02734              17.88749
   AR                   89.35894              18.55377              37.57385
   AR                   85.87885              14.88042              35.45531
   AR                   83.37771              41.79137              27.33069
   AR                   94.34272              43.63229              10.40220
   AR                   87.15132              25.21912              35.76232
   AR                   12.80094              18.29413              16.75484
   AR                   88.43561               4.67811              26.85659
   AR                   93.86197              14.94590              23.27512
   AR                    2.18784              13.61991              26.12790
   AR                   53.65491              24.86942              43.12151
   AR                   75.73905              21.36154              29.52276
   AR                    4.70805              23.82963               8.01430
   AR                   52.50817              16.71159              38.59372
   AR                   87.03987               0.70217              38.38573
   AR                   57.14970              19.18567              20.81312
   AR                   62.63081               6.31438              12.37239
   AR                   90.55353               1.90319              20.58686
   AR                   61.99598               2.22221               9.70288
   AR                   70.10357               3.55523              15.13493
   AR                   23.56034              28.93437              18.55694
   AR                   70.88349              39.40080               6.46054
   AR                   86.97593              48.68960               9.99651
   AR                   49.60843              20.92277              28.53960
   AR                   57.25463              44.20534              47.30308
   AR                   51.50327              34.23546              35.10025
   AR                   65.85433              42.11054               7.05921
   AR                   83.75880               8.15771              38.71979
   AR                   25.78525              13.22434              13.19132
   AR                   86.90501              28.67793              17.39387
   AR                   77.90421               9.76362               5.40627
   AR                   66.30956              36.92665              14.34373
   AR                   81.50371              23.53985              43.05261
   AR                   47.64785              37.39282               5.83149
   AR                   69.46176               8.85986               2.11057
   AR                   55.58935               6.19231              31.58676
   AR                   77.46870              25.96901              34.10268
   AR                   52.20245              25.24025              11.41626
   AR                   30.64625               3.20304              28.32046
   AR                   68.43250              30.56756              17.63120
   AR                   92.82199              37.00014              10.27247
   AR                   83.03117               5.25624               0.46804
   AR                   20.70218               1.91355               4.56643
   AR                   50.02801              37.83464              15.10037
   AR                   94.55065              32.81463               2.09062
   AR                   91.24448              15.45676              47.87999
   AR                   68.95790              39.32175              32.43607
   AR                   88.89636              36.40329               5.85646
   AR                   58.91884              13.12413              12.00345
   AR                   62.49190              10.03469              31.47035
   AR                   63.61977              40.00279              28.30354
   AR                   92.52732              46.25067              46.09996
   AR                   56.08014               5.91303              41.49567
   AR                   58.91047              42.71307              11.74033
   AR                   85.14387              11.21686               3.25962
   AR                   94.96527               7.49603              47.05057
   AR                   95.64899              41.84552              35.51691
   AR                   90.29664              31.77148              35.24547
   AR                   74.41025              42.41349               3.47371
   AR                   94.13520              26.48679              28.84992
   AR                    0.91824               2.55125              23.62804
   AR                   80.99807              27.33851              46.90594
   AR                   59.05792               4.22861              29.48413
   AR                   94.68324              11.43633              14.33951
   AR                   82.94816              25.83748               9.43298
   AR                   21.99582               0.78802              16.83327
   AR                   66.67881              18.43913              11.08960
   AR                   85.30929              11.84858              23.72196
   AR                   70.84039              32.85135              34.47418
   AR                   69.25319              23.37018               8.84482
   AR                   80.10868              43.97205               0.51657
   AR                   66.80365              28.62108              29.53423
   AR                   81.05470               2.28903              11.41520
   AR                   85.62983              37.11076              39.35274
   AR                   93.85300              21.00098              35.90135
   AR                   47.31732               1.06487              15.93632
   AR                   22.34030              22.64342              11.79126
   AR                   68.10036              15.80574               2.10716
   AR                   88.74052              18.81477              46.35348
   AR                   90.15992              19.48956               6.70985
   AR                   24.15152              16.10178               1.53242
   AR                   83.71552              23.23243              49.06585
   AR                   56.03676              36.95835              21.21686
   AR                   72.12363              14.67687              45.83937
   AR                   70.51242              39.61035              22.84454
   AR                   92.13732              26.33486              46.53447
   AR                   21.35878              20.62553               6.64351
   AR                   80.54708              32.07432               3.70135
   AR                   57.79581              35.43875              47.71453
   AR                   78.68095              30.63851              46.03311
   AR                   62.38076              10.68696              35.47061
   AR                   15.62966              19.34837               7.39955
   AR                   57.24764              41.21465              23.47387
   AR                   71.08020              15.06093              28.94890
   AR                   79.92751              26.15345              41.68152
   AR                   13.48691               6.66594              19.42396
   AR                   49.14983               6.22251               0.71212
   AR                   21.03016               6.04937              15.97267
   AR                   64.76723               7.70144              22.49477
   AR                   92.66277              48.04580              25.13563
   AR                   58.59268              37.26927              16.90381
