       356
            34.74370            53.97358
   AR                   84.47030              40.32894              20.93936
   AR                   66.97894               5.83527              32.36081
   AR                    5.53323              27.59905               1.62720
   AR                   87.01313              26.30570              51.02133
   AR                   63.61356              29.38090              22.56137
   AR                   87.30110              42.09653              20.00234
   AR                   92.55542              39.83027              41.96069
   AR                   19.11197              20.94612              12.10763
   AR                  105.85973              20.76664              30.69371
   AR                   76.81517              22.09709              33.27067
   AR                   26.26290              26.60373              29.86915
   AR                   84.10631              30.78163              30.62943
   AR                   69.32155               1.09915              34.67754
   AR                   87.19795              25.46153              45.06436
   AR                   79.54788              35.95720              12.89600
   AR                  101.91968              53.83752              15.11512
   AR                   66.46198              32.27970              29.04080
   AR                   92.46682              26.49982              53.20941
   AR                   70.86055              29.44839              40.00179
   AR                   70.88475              16.07310              45.89526
   AR                  105.51535              18.32545              43.32851
   AR                    7.38603              26.87821              25.78521
   AR                   16.94137               6.03272               6.35277
   AR                   85.78281              43.84988               8.43191
   AR                   30.27572               8.40489               6.95082
   AR                   14.73225              16.05676              18.73530
   AR                   82.87877              35.60083               2.32831
   AR                   83.37906              14.63193              12.99877
   AR                  101.36314              30.87283              40.49461
   AR                   63.97264              35.69111              50.89427
   AR                   97.52650              44.86932              18.22534
   AR                   83.54901              11.93242              18.25629
   AR                  105.10795              18.32463               7.66845
   AR                   55.00196               4.78862              13.67127
   AR                    2.33902              32.33370              17.30366
   AR                   79.84110              17.93064              33.78924
   AR                   93.48056              13.22860              30.20253
   AR                   92.66144              26.59125              12.25296
   AR                   80.77935              39.22528              50.01231
   AR                   92.06035              14.09915              49.30429
   AR                   76.16252              42.28392              32.22776
   AR                   77.67167              52.22644              52.02900
   AR                   29.77787              32.78204              33.66925
   AR                   96.81318              52.83748               5.48787
   AR                  105.14075              29.28309              11.71905
   AR                   23.07110               8.20357              15.97006
   AR                    2.93153              30.38257               5.87023
   AR                   73.85322              10.26049              42.68206
   AR                   59.67270              28.89152              31.09256
   AR                   75.87022              29.80387              21.26919
   AR                   59.89287              51.65615              12.75255
   AR                    5.74971               7.69970              13.91485
   AR                    2.45207              31.13880              29.23448
   AR                   93.58944              17.75715              48.05500
   AR                   28.28364              13.61979               6.79093
   AR                   59.75186              22.07139              33.02788
   AR                   67.59586              44.94958              36.97927
   AR                   63.04111              27.90552              41.13627
   AR                   57.56823              50.49295              30.71888 FRACTIONAL
   AR                  101.79935              35.19666               0.44306
   AR                   70.16183              20.61671              28.13608
   AR                   74.78086               2.89187              27.36423
   AR                   83.98446              24.01314              43.23620
   AR                   13.97561              32.13776              21.46417
   AR                   53.77879              35.47673              18.06904
   AR                   26.96558              14.26245              14.72461
   AR                   84.93100              22.91467               7.56365
   AR                   86.07058              47.39135               7.43206
   AR                   12.03778              15.56071              30.56557
   AR                    0.02756               4.76544              12.62981
   AR                   98.62763              52.44871              35.19450
   AR                   68.13127               4.37694               1.52815
   AR                   55.41535              18.72967              53.61003
   AR                   74.79761              43.69917               6.67291
   AR                    8.99445              21.15913              32.80650
   AR                   61.24650              32.08216              19.00355
   AR                   86.84027              22.86940              25.89960
   AR                  104.53199               4.87674              15.09973
   AR                   95.24408              49.18683              20.28389
   AR                   77.19386              44.89946              24.48534
   AR                   84.91449              50.40593              33.00469
   AR                   93.53658              43.12117              49.96447
   AR                   72.96432               2.36210              52.27784
   AR                  103.78772              28.50589               4.77496
   AR                   84.08228               9.11505              31.62562
   AR                   80.61489               6.13005              35.08058
   AR                  102.50576               0.37535              25.54195
   AR                   88.69037              24.70648              11.49715
   AR                   93.53536              11.37666               0.09312
   AR                   14.10903               2.88326               9.65404
   AR                   88.17067              36.47163              33.51751
   AR                   98.27867               4.21959              23.17499
   AR                   52.58527              46.12811              38.57619
   AR                   96.29051              17.11454               5.32995
   AR                  102.39794              23.81513              39.15264
   AR                  105.33376              29.63755              30.72910
   AR                    3.56857              32.52173               1.27795
   AR                   21.91995              23.38319              10.02569
   AR                   93.11714              40.30166              52.41515
   AR                   90.17320               1.90878              51.28552
   AR                   82.93936              30.77279               0.86990
   AR                   18.02814              12.50011              29.34043
   AR                    1.15300              14.87833              11.29209
   AR                   13.17037               3.13080               5.71695
   AR                    6.42833               4.39932              16.20953
   AR                  102.51583              22.45304              48.88531
   AR                   26.51252              31.86160              21.07761
   AR                   52.92667              35.05791              52.53843
   AR                   81.66609              46.88833              42.06026
   AR                   29.87626              23.14301               6.98852
   AR                   88.15998              48.76534              38.93503
   AR                  100.55762              36.00886              11.78512
   AR                   13.28988              10.02047              18.77372
   AR                   81.89125              17.36618               5.39955
   AR                   24.19026               7.94984              12.20312
   AR                    4.54645               7.37785               6.95043
   AR                  104.33675              26.42874              15.05994
   AR                  100.57765              26.59372              20.63538
   AR                    8.56210              29.02286              30.20418
   AR                    0.01827              28.01559               5.56218
   AR                   95.24853              40.35022              20.50039
   AR                   23.17411              15.88554              33.22534
   AR                   71.17453               9.00785              53.08795
   AR                   64.22517              24.73682              42.27118
   AR                   58.67316              49.99981              22.87109
   AR                    2.27510               7.59628              32.22419
   AR                   72.60883              10.52437               6.71908
   AR                   32.06185               8.58164              28.30189
   AR                   14.52090              30.17049              32.75584
   AR                   74.93085               9.60381              27.07009
   AR                   96.49100              45.30450              49.28434
   AR                   98.12027              43.13875               8.03812
   AR                   92.03774              17.89479              32.48275
   AR                   74.55347              21.81827               8.74375
   AR                  100.15054              20.91803              34.07196
   AR                   52.17074              16.70954              22.39572
   AR                   90.62672              53.14937              39.50467
   AR                   85.87196              19.93860              34.44800
   AR                  103.45401               8.42744              28.91214
   AR                   66.93710               5.24007              25.25144
   AR                   52.90436              44.45959              19.58210
   AR                   76.13689              30.23290              39.78056
   AR                   68.97042               8.78615              15.87591
   AR                   34.64176              15.85385               7.73970
   AR                   73.63920              27.63555               1.04784
   AR                   89.22301              46.43800              27.36405
   AR                   26.36661              23.59888              29.67047
   AR                   72.87757              18.26776              33.54860
   AR                   20.88583               7.38412               5.48616
   AR                    5.73146              32.27638              16.11781
   AR                   66.28470              27.93146               2.06915
   AR                   24.27011              13.70311               6.62479
   AR                   95.75873              35.00401              35.41148
   AR                   82.61515               1.88804              38.04110
   AR                   90.99633              35.39358              26.23359
   AR                   98.93341               3.16003              52.32069
   AR                   53.86613              28.60385               0.62306
   AR                  104.11422               5.44780              35.14056
   AR                   25.34236              29.47756              14.98031
   AR                   70.00658              18.31755              16.62661
   AR                   30.99973              25.59215              22.90843
   AR                   75.14200              19.56983              51.13502
   AR                   68.83239              44.23650              23.66818
   AR                   22.59522              24.08201              20.24610
   AR                  102.90711              31.54755               6.59716
   AR                   87.43141              22.97249              29.56137
   AR                   85.44865              22.41489              16.92991
   AR                   78.75585              29.66002              36.75707
   AR                   16.82365               1.18339              13.04489
   AR                   32.70061              16.82268              17.23285
   AR                  104.27757              53.91954               4.85463
   AR                   58.90981              19.23453              41.59164
   AR                   63.65830              25.76489              22.83598
   AR                  103.03234              11.60806              39.07900
   AR                   60.86477              51.25818              45.35457
   AR                   12.57583               2.46547              16.54415
   AR                   70.65722               7.25024              33.40200
   AR                    4.86007              29.76408               9.61745
   AR                   90.06062              38.42833              45.21991
   AR                   68.16085              38.12473              10.65660
   AR                   62.52501              30.83585              25.43757
   AR                   14.32492              23.95574              23.53040
   AR                   77.31827              31.50159               3.02053
   AR                    4.80746               2.28930              12.29435
   AR                   76.65331              22.99787              50.70334
   AR                   71.33812              42.30183              41.80405
   AR                   27.94089              32.80301               7.58747
   AR                   72.70187              33.45906              41.94174
   AR                   79.39895              37.27061              44.12425
   AR                  104.31135               0.77679              17.99628
   AR                   23.22830              28.90185              30.30955
   AR                   61.13732              53.71459              32.08922
   AR                   99.40771              23.17577              51.61621
   AR                   91.69062              48.91017              45.79390
   AR                   92.23369              37.02813               1.27770
   AR                   20.89884              29.24835              33.02854
   AR                   13.98672              16.33067              11.98933
   AR                  104.70703              27.71806              44.55639
   AR                   60.30289              15.05309              25.51390
   AR                   27.04293               7.13633              10.12174
   AR                   54.30575               8.21538              24.84605
   AR                   64.25058              10.41416              22.71229
   AR                   11.92217               7.65274              32.06829
   AR                  102.74345              21.18119              19.54134
   AR                   64.62335              50.44165               4.00531
   AR                   63.49313              30.85268              45.36898
   AR                   16.86265              26.41943              30.34501
   AR                   61.08200               7.73907               9.74023
   AR                   99.31971              15.71898              44.16274
   AR                   11.09075              17.67379              19.69357
   AR                   90.70437              21.03528               0.29941
   AR                   89.06496              31.65288              17.02527
   AR                    7.36976              29.66741              18.85529
   AR                   53.92562              42.13180              10.32970
   AR                   54.48536              30.93517              19.61098
   AR                   58.53685              53.69292              27.26572
   AR                   81.89903              25.41535              22.03958
   AR                   93.57343              38.00752              45.67962
   AR                    1.78374              10.40630               0.69568
   AR                   53.49172              53.61670              11.92163
   AR                   86.37217              29.92057              20.41136
   AR                   53.57910              28.93912              16.39873
   AR                   55.97973              53.65413              47.23197
   AR                  102.27774              35.73052              42.80752
   AR                   90.40935              26.15498              23.11435
   AR                   93.81637               2.70936              53.28229
   AR                   16.27807              12.35256              11.49168
   AR                   77.98316              48.05138              41.79652
   AR                   91.74175              37.45885              35.41715
   AR                   72.97251               6.00232              52.47325
   AR                  102.05340              51.82044              37.54422
   AR                   95.03110              46.94872              36.85409
   AR                   87.40827               3.70916              31.86184
   AR                   84.85095              25.67596              20.97452
   AR                   29.22294               5.76002              25.75268
   AR                   77.85219              41.52718              17.78405
   AR                    8.83330              10.14075              29.64903
   AR                   54.71024              33.41702              14.18832
   AR                   95.43080              51.76824              28.04912
   AR                  102.09889              34.61198              37.15404
   AR                    7.51752               1.40113              10.06782
   AR                   90.00814              22.67581              19.49133
   AR                   30.11332              25.14283              30.72970
   AR                   70.90665              21.21395              34.16188
   AR                   54.54345              14.15317              26.95537
   AR                   64.46548              37.03269              47.88916
   AR                   52.66292              24.66613              19.38523
   AR                   78.51885               9.27096              41.24372
   AR                  104.49438              46.53035              16.32960
   AR                  102.41858              49.97553              16.62677
   AR                   89.82265              33.74769              14.21080
   AR                   15.09906               5.85721              14.79075
   AR                    7.96495               7.29641               4.97251
   AR                   81.87841              32.52895              37.49281
   AR                   60.06464               0.06109              43.39242
   AR                   71.02570              45.86767              28.80206
   AR                   93.04574              13.42389               9.66503
   AR                   58.00051               0.21360               5.33761
   AR                   90.59571              20.21043              14.65134
   AR                   97.26098               2.14625              40.21492
   AR                   64.79316              40.80634              33.80300
   AR                   60.10872              15.94991              39.07530
   AR                   55.24546              48.93113              10.55241
   AR                   84.31243              10.63498              46.78003
   AR                    8.95198              19.53814               9.79841
   AR                   89.12019              34.75289              37.28079
   AR                   75.30810               6.76316              39.68421
   AR                  103.80476              53.84009              47.83624
   AR                   95.01647               0.86913              26.82692
   AR                   31.55209              21.61146               2.62451
   AR                   61.88367              51.38848              25.08779
   AR                   83.36444              15.90160              43.99939
   AR                   34.57541              22.52601              24.09316
   AR                   95.43331              32.05205              51.67820
   AR                   92.33962              44.44197              25.13895
   AR                   24.54052               0.12538              29.73514
   AR                   98.91723              25.46299              45.00267
   AR                   20.54858              24.14945               0.45065
   AR                   81.12457              38.15046              36.77433
   AR                   15.32974              29.97376              16.39163
   AR                   96.43132              32.34590              47.32385
   AR                   60.21458              32.46345              51.50534
   AR                   97.22562              46.50157              43.84630
   AR                   57.46268               4.25920              50.84233
   AR                   96.98501              31.68587               9.31074
   AR                  104.80184              13.32957               7.91742
   AR                  103.50031              13.95044              25.54527
   AR                   58.06022              26.37853              39.22658
   AR                   69.38523              27.67777               0.13329
   AR                   22.69039              30.85547               8.58679
   AR                   32.39424              30.55355               1.50970
   AR                   83.88112              33.95394              40.43863
   AR                    9.96416               6.68083               8.08516
   AR                   62.69601              53.43082               9.81448
   AR                   97.72225              32.95739              21.00270
   AR                   80.16117               7.85556              30.95885
   AR                   15.33121               3.89411              27.80507
   AR                   57.58736              47.92520              26.28573
   AR                   85.00449              34.22208              45.25931
   AR                   58.29463              49.69244              49.15597
   AR                   65.35371               7.78909               9.54131
   AR                   61.59861              29.58811               2.77153
   AR                   92.68251              52.87789              45.90347
   AR                   92.54937              44.49118              15.10347
   AR                   17.51074              28.76963              33.11797
   AR                  105.09089              53.76763              34.15959
   AR                  103.72711              51.79780              40.59064
   AR                   78.62656              20.69294               2.99632
   AR                   14.84139              33.18031              30.21882
   AR                   62.78148              49.00942               7.13594
   AR                   75.08063              22.47408              47.09935
   AR                   82.21207              50.49893              40.07069
   AR                   15.11914              23.08024              28.72055
   AR                   80.74283              38.98262              22.86347
   AR                   54.69954              49.14031              17.95770
   AR                  101.00018              17.07647              24.18553
   AR                   58.37702              40.38382              20.97481
   AR                   71.44813              15.69124               3.05537
   AR                   69.62570              38.71372              35.61805
   AR                   14.31606               2.96770              20.09917
   AR                   94.00880              30.09488               3.23982
   AR                   78.85084              41.50030              12.99561
   AR                  102.09949              12.37878               0.94958
   AR                   99.21982              20.32691              22.43154
   AR                   87.35753              26.78194              32.10965
   AR                   58.77757              26.34833              22.06906
   AR                   76.89831              19.11049              31.58733
   AR                   29.77693              22.66599              27.55818
   AR                   10.94398              18.15690               0.49479
   AR                   60.64677              36.61892              21.73331
   AR                   72.89100               5.29481              48.87317
   AR                   95.05437              17.59863               9.89272
   AR                   96.30574              19.00296              31.27483
   AR                   79.56521              15.50683              42.07772
   AR                    2.01788              11.23979              10.58182
   AR                    7.81372              30.24177               6.73945
   AR                   70.24260              30.70971               2.06686
   AR                   63.96386              22.36199              52.56086
   AR                   15.05616              26.06063              26.29948
   AR                   94.32803              22.53129              40.11671
   AR                   78.14473              25.04611              42.97144
   AR                   77.97613              41.69088              51.26206
   AR                   60.03668              18.05733              30.66342
   AR                  102.54646              18.19822              28.22978
   AR                   53.77094              31.80922               5.95477
   AR                   64.35272              32.29484               6.00988
   AR                   88.62372              19.03509              23.33404
   AR                    1.62250              16.42070              29.61796
   AR                   68.72284              32.54361              17.78511
   AR                   94.59172              14.28100              20.23331
   AR                  101.27366              33.78628               8.89431
   AR                   83.19291              22.18917              20.18863
   AR                   93.50789              29.06209              42.10381
   AR                   85.58800              20.12037               2.89929
   AR                   92.48320              50.37573              21.88629
   AR                   56.44170              23.58324              29.41969
