       421
            32.69800            51.35642
   AR                   52.58690               0.81306              49.38821
   AR                   60.02387              35.54345              16.31882
   AR                   28.05113               8.66533               3.64290
   AR                   66.70549              41.21225               0.05591
   AR                   52.90253              17.88825              30.41421
   AR                   65.06102              43.50912              31.94562
   AR                   60.90457              35.41777              34.33859
   AR                   94.75298              12.72248              41.44352
   AR                   86.97724              33.69716               0.57804
   AR                   76.56755              38.69971              45.71079
   AR                   72.36679              32.63660               9.69803
   AR                   86.66580              10.88538              37.31253
   AR                   95.20291              24.42398              34.19329
   AR                   63.13672              15.02790              31.54993
   AR                   84.19837               8.21660              47.95534
   AR                   20.54264              22.41846              11.01532
   AR                   13.43157              12.63127              31.30510
   AR                   68.00394              32.90441              33.03657
   AR                   92.75942              44.31561              42.66885
   AR                   17.85497              13.21372              23.66686
   AR                   87.86461              18.33688              40.04769
   AR                   85.60955              48.81509              18.58667
   AR                   55.91579               8.14022              15.00080
   AR                   88.46796              43.88685              35.73417
   AR                   68.19040              29.40031               7.55717
   AR                    3.73505              20.68752              26.38245
   AR                   95.70478              13.55392              22.26926
   AR                   88.27940              43.22955               4.20786
   AR                   73.89474              14.83631              42.70881
   AR                   11.55779              25.37167              10.41363
   AR                   20.40917              27.70371              24.32220
   AR                   69.15021              18.89547              20.43583
   AR                   89.26053              36.18932              16.82459
   AR                   68.30658               5.68843              18.21956
   AR                   92.88538              25.12346               2.12675
   AR                   25.43579               4.35713              26.75660
   AR                   83.11484               1.94883              40.56917
   AR                   73.96873               9.05151              10.29329
   AR                    8.64022              10.35356              26.97796
   AR                   17.90555              27.88000               0.95332
   AR                   92.88732              13.78018               3.95154
   AR                  100.22484               7.00574              16.56255
   AR                   95.03220              24.01860              37.36156
   AR                   91.00862              28.58166              44.03347
   AR                   95.62723              46.65747              34.47825
   AR                   11.53961               9.06239              15.40767
   AR                   74.85751              12.70538               9.01320
   AR                   61.06491              44.38552              50.88740
   AR                   10.91409              18.34355              27.66408
   AR                   95.13023               7.32966              27.50944
   AR                   51.80077              23.47134              49.72237
   AR                   13.45836              13.50683               2.38801
   AR                   88.97428               5.76964               2.29319
   AR                   94.13952              10.34110              44.07701
   AR                   77.21138              33.42525              41.34929
   AR                   17.92917               8.07647              16.27098
   AR                   28.91367               2.11238               4.60188
   AR                   99.63455              11.36189              48.72505
   AR                   55.89253               0.44328               4.49392
   AR                   73.92570              24.11878              19.76445
   AR                   77.24858              44.85783              48.07303
   AR                   99.29397              39.76421              48.32706
   AR                   67.42209              21.85817              19.95828
   AR                   10.22081              14.10519              30.25496
   AR                   96.66715              10.06728              10.11722
   AR                   52.66513               9.52126              49.91169
   AR                   56.20211              14.87050              33.77511
   AR                   50.62830               0.79303              38.50178
   AR                   95.53381              21.19518              33.00441
   AR                   96.99886              14.19503              48.37554
   AR                   73.45575              46.31222              10.52771
   AR                   60.30102              45.86654               7.31724
   AR                   68.85020               8.24362               1.05397
   AR                   76.09638              15.36773              47.68261
   AR                   69.66386              40.85399              23.18365
   AR                   53.70990               5.40786              40.99670
   AR                   70.49004              16.13075              23.27557
   AR                   93.44695              47.12982               9.10255
   AR                   66.06829              15.44761              11.33242
   AR                   24.13285              22.68252              24.77953
   AR                   82.51743              19.21675              11.73294
   AR                   98.89592              43.34189              34.96311
   AR                   51.67244              23.91435              44.63734
   AR                   55.53835              36.61896               5.83174
   AR                   75.21731              49.57727              20.85512
   AR                   90.27632              12.34957              16.09405
   AR                   24.84362              28.91496              18.03422
   AR                   29.36829              20.49053              14.68227
   AR                   28.55577               0.14463              16.99255
   AR                   21.98642              25.94387              21.59893
   AR                   72.65341              30.22529              42.73030
   AR                    9.67292              20.99178               2.26490
   AR                   23.86282              30.25629               5.08736
   AR                   74.97191              34.37584              11.25392
   AR                   22.04933              25.22183              11.35548
   AR                   77.99838              49.36479              24.09269
   AR                   68.87353              33.87164              20.68282
   AR                    7.58377               7.84771               6.62264
   AR                   89.29500              22.13311              37.67750
   AR                   85.24359              38.37668              15.62156
   AR                   16.00902               4.49725              22.02110
   AR                   19.57151              10.40441               4.40649
   AR                   60.16925              33.86964              21.67675
   AR                   20.30111              23.25569              22.59426
   AR                   70.20581              19.89262              44.93792
   AR                   60.17879              47.17414              49.08319
   AR                   23.73431              27.24418               3.29032
   AR                   51.66519               7.53848               5.31961
   AR                   99.80871              33.10992              19.11071
   AR                   54.58004              21.87415               8.44175
   AR                   90.59635              15.72796              22.97155
   AR                   90.91831              11.46747              32.72050
   AR                   85.48366              26.40330              26.45982
   AR                   86.33780              18.47235              10.51127
   AR                   96.13645              50.83443              41.84288
   AR                   86.69616               2.14716              24.01588
   AR                   76.33267              43.79859              43.55976
   AR                    3.02886               6.20786              30.75435
   AR                   14.35847              25.72382              12.36062
   AR                   88.25394              11.62158              45.92863
   AR                   86.21026              27.07848              21.33279
   AR                    2.27892              20.60616              18.53261
   AR                   94.56858              44.60885              26.84895
   AR                   59.59753              19.35446              29.93386
   AR                    6.59108              16.25218              22.65393
   AR                   71.26784               8.98777               4.03160
   AR                   75.80040               6.61391              16.39836
   AR                   66.88823              20.67755               1.78232
   AR                    0.75947              21.39711              30.61572
   AR                   77.70463               9.68101              46.28653
   AR                   98.35841              24.66178              17.88990
   AR                   77.12496              35.94907              14.35701
   AR                   65.09726               3.58621              36.53072
   AR                   57.51534               0.50586              48.65370
   AR                   88.10087              13.80170              31.42860
   AR                   66.08841               9.72453              34.14591
   AR                   55.85544               6.24785              38.42125
   AR                   90.81663               1.52654              48.19196
   AR                   87.68637              10.39618              29.75303
   AR                   18.08526              19.63231               0.79327
   AR                   70.71273              26.81218              21.61291
   AR                   78.29937              27.98373              10.76683
   AR                   61.73290              12.97414              44.35164
   AR                   24.87395               7.59522              28.63020
   AR                   96.31868              33.36937              17.17948
   AR                   71.85665              47.34054              16.57757
   AR                   74.94916              47.14358              27.51456
   AR                   96.96438               5.56986               4.59681
   AR                   71.07144              26.86168              40.58762
   AR                   94.94926              27.71767              45.78277
   AR                   93.37327              25.15451              26.46535
   AR                   81.57699              27.88633               0.05187
   AR                   79.65213              16.94970              20.79561
   AR                   58.00440               1.58529              26.23205
   AR                   74.81008              49.93773              30.10412
   AR                   93.03861               1.51026              29.62935
   AR                   64.78691              11.06120               5.13989
   AR                   82.43274              46.78352              11.97750
   AR                   65.78151              13.05665              37.15050
   AR                   66.82186              32.39921               4.93207
   AR                   85.54282              41.07061              41.17146
   AR                   92.78556              43.97341               3.78723
   AR                   72.82426              50.44213              36.02985
   AR                   88.39963              11.58529               9.55726
   AR                   57.16596              31.51633              34.89381
   AR                   82.09637              38.84834              12.44495
   AR                   62.05944              50.51671              32.84364
   AR                   10.29593              10.82991              21.55127
   AR                   91.44647              25.65036              11.95182
   AR                   98.15244               6.36964              40.62930
   AR                   55.79523              32.43470              38.75357
   AR                   95.44865              21.39063              43.16968
   AR                   63.84097              26.81842              28.82669
   AR                    9.62137              17.27219              21.94048
   AR                   79.14428              15.97323              34.57875
   AR                   80.95727              30.14945              39.77212
   AR                   80.98482              13.91520              29.12541
   AR                   55.94805              26.68858              12.46410
   AR                   86.62293              37.95664               0.20462
   AR                   13.40555              12.05545              11.18996
   AR                   21.91875              32.48169              17.06357
   AR                   22.07875              14.35876              14.63952
   AR                   79.77123              31.77659              24.71592
   AR                   16.18428              16.60705               4.74958
   AR                   76.01878              25.45300              10.27646
   AR                   78.19189              46.74092               6.30947
   AR                   20.33377              16.80771               6.41217
   AR                   79.22520              18.49159              14.86466
   AR                    0.52996               0.60692               4.68750
   AR                   80.96272               5.94323              12.83485
   AR                   53.00668              33.52439              10.41040
   AR                    6.95708              28.10632              32.42977
   AR                   68.02495               6.26452              37.76918
   AR                   68.89921               4.53954              50.21549
   AR                   64.21829              44.86425              24.41316
   AR                   63.82526               2.16702              15.68379
   AR                   53.03938               6.89072              23.92072
   AR                   62.25122               2.59832               9.36179
   AR                   86.72350              19.82072              21.30243
   AR                   73.22868              46.65605              51.07284
   AR                   80.72048               7.84483              50.57758
   AR                   70.62637              11.16938              23.72987
   AR                   74.17528               6.17776              27.05842
   AR                   93.60725              24.47548              42.81239
   AR                   32.34825               4.26496              27.23545
   AR                   58.27711              15.75269              40.22252
   AR                   12.53237               4.28720               8.04932
   AR                    6.76969              25.30151              11.57723
   AR                   82.50922              36.98311              34.37699
   AR                   95.52203               8.27593              12.65319
   AR                   87.47260              34.13673               9.50106
   AR                   73.50456              31.97597              39.31173
   AR                   82.63931              33.94133              10.54610
   AR                   74.86388              22.03931              41.31648
   AR                   56.88747              28.86889               4.53129
   AR                   11.20938              28.44981               5.21568
   AR                   84.26543              13.82296              17.50265
   AR                   63.48830              46.99380              31.77432
   AR                   84.62173              21.62167              29.32734
   AR                   98.61991              24.45363              22.10895
   AR                   83.90069              42.70913              12.10708
   AR                   24.52464              15.81091              12.16214
   AR                    9.74986               2.16847               6.44123
   AR                   28.39040              31.06917               4.80213
   AR                   62.24099              23.68856              48.38217
   AR                   74.00508              14.10868              38.92133
   AR                    0.91993              20.72061               5.20932
   AR                   52.23880              16.55090               1.81304
   AR                   69.12824               4.95003              11.85425
   AR                    8.78208              10.26673               8.87072
   AR                   53.87167              16.40789              45.21833
   AR                   74.00549              36.92464              43.99550
   AR                   94.98482              34.90181              13.42061
   AR                   65.71322              17.45966              39.35794
   AR                   74.50762              34.87226              35.93149
   AR                   66.14522              38.50655               9.82475
   AR                   84.97211              19.77662              44.11220
   AR                   13.74650              14.27497              22.13762
   AR                   82.07550              41.41701               7.55679
   AR                   68.65343              51.06041              25.48573
   AR                   18.65233              13.20327               6.11819
   AR                   49.08642               2.31155              15.39249
   AR                   13.45009              20.36334               4.25135
   AR                   26.21141              12.47641              15.59415
   AR                   65.12432              42.19424              22.09279
   AR                   94.07944              28.03234              40.73791
   AR                   78.17215               7.39584              33.24871
   AR                   84.77313              15.58981              40.87846
   AR                   24.36085              22.59764              30.28201
   AR                   96.50693               1.36621              23.89693
   AR                   85.30044              42.99506               7.14924
   AR                   76.13623              14.36074              24.00552
   AR                   91.61850              15.65357              30.84942
   AR                   56.86173              11.17028              20.79994
   AR                   72.34392              15.47032               1.75008
   AR                    4.56053              19.12655              12.02586
   AR                   85.08684              33.09087              20.55681
   AR                   67.87712              13.79920              14.19832
   AR                   84.25699               0.70300              19.00417
   AR                   22.46821               8.27919               5.66499
   AR                   87.33534              13.39822              24.70614
   AR                   57.74802              43.78985              44.55742
   AR                   10.10740               8.06370              19.19601
   AR                   79.45690              42.34856              19.63537
   AR                   74.75740              33.45578              46.64792
   AR                   77.25124               4.96264              29.15608
   AR                   28.09868               6.57060              23.65439
   AR                   88.83800              50.17929              30.87725
   AR                   53.35336              18.42586              38.67167
   AR                   23.98460              10.42330               8.16307
   AR                   49.81485              41.50927              33.17211
   AR                   72.70817              38.43032               6.50541
   AR                   80.37983               9.86414              32.59019
   AR                   56.57755              33.18478              16.82025
   AR                   81.54046               4.66871              23.16654
   AR                   15.42232               2.08607              27.34417
   AR                   49.39692              24.47607               8.83355
   AR                   98.11809              10.53894              27.49372
   AR                   70.20725              30.58654              19.42189
   AR                   29.58845              13.16624              18.34865
   AR                   65.07194              28.48278              36.13591
   AR                   84.43075               7.43214              27.20161
   AR                   13.89232              31.36411              26.47211
   AR                   88.54183              36.65950              39.00692
   AR                   64.46029              41.20595               9.33078
   AR                   90.47927              49.13602              39.36336
   AR                   63.40246              46.41031              45.69783
   AR                   21.18196               3.67901              26.20582
   AR                   27.81210              11.18568              12.69204
   AR                   56.62789              39.17605              36.70650
   AR                    7.93251              11.30935              18.34045
   AR                   19.34465              11.38642              14.02848
   AR                   59.07514              31.77697              40.24640
   AR                   58.01186              24.91524              49.86924
   AR                   66.83978              14.16295              22.11703
   AR                   25.79569               2.38690              13.12728
   AR                   66.79497              48.14695              44.81830
   AR                   31.90465               1.88400              10.89123
   AR                   75.23137              50.50146               8.21859
   AR                   99.60617              35.26038              48.88086
   AR                   61.11508              44.28289              31.59168
   AR                   20.88253               1.28398              19.50907 FRACTIONAL
   AR                   74.24055              18.37488              24.14468
   AR                   66.37387              14.96210              27.12513
   AR                   78.65851              36.01260              34.03872
   AR                   72.90015              49.27837              39.88312
   AR                   92.87673               6.10314              20.83683
   AR                   74.78165              34.11101              21.17911
   AR                   15.05638              11.61982              19.68820
   AR                   67.77850               9.27612              39.23107
   AR                   63.96491              18.90902              50.64129
   AR                   77.20926              36.13227               4.90245
   AR                   73.61692               6.54231               3.63909
   AR                   80.32252              38.25288              28.89469
   AR                   97.95793               2.12120               1.31204
   AR                   94.92175              40.93817              22.59943
   AR                   98.46918              35.51120               1.24359
   AR                   80.32549              29.63296              46.46922
   AR                    6.60122              24.67222               6.28417
   AR                   93.38512               5.29568              12.47669
   AR                   53.36257              39.04335               3.43577
   AR                   31.13250              26.05801              20.49218
   AR                   97.45077              40.56814              16.57069
   AR                   24.10114               3.34632              23.46832
   AR                   88.11211              26.37011               6.32614
   AR                   29.42363              26.94334              31.11592
   AR                   49.53152               3.88512              25.19966
   AR                    8.26614               9.72566               2.77215
   AR                   14.54484               8.84310              30.49729
   AR                    3.00892              11.01840               5.19043
   AR                   19.78082               0.39103               4.25995
   AR                   81.54346              27.24061               9.26022
   AR                   78.64902              49.46700               9.44377
   AR                   66.30791              23.53767              23.70767
   AR                   63.29232              20.33709              30.93829
   AR                   84.13545              29.10337              45.95239
   AR                   83.56744              40.37440              51.31734
   AR                   94.79706              30.64928              42.81755
   AR                   80.09127              32.99742              44.36729
   AR                   93.23926              39.30529              36.79755
   AR                   64.11533               6.89855              33.21503
   AR                   58.07464              27.08207              33.51054
   AR                   78.96748              13.74844              14.16593
   AR                   29.50942               3.60124              18.80852
   AR                   82.17030              18.57164              28.08115
   AR                   52.67039              10.44652              18.42348
   AR                   93.26096              23.71156              22.97188
   AR                   52.55545              49.96606              27.97475
   AR                   60.19198              33.74013              30.88950
   AR                   69.88340               0.29176              12.76570
   AR                   20.92012              17.59903               1.78036
   AR                    2.58086               6.66007              16.79513
   AR                   68.30994               4.57796               7.31281
   AR                   23.55469               4.65195              11.62335
   AR                   54.04495              20.13460              50.50383
   AR                   82.06731               4.77783              33.19334
   AR                   61.82007              16.19113              15.97181
   AR                   59.82937              18.98282              17.97965
   AR                   85.33126              28.52535              34.25340
   AR                   49.26350               1.83641               4.35326
   AR                   12.74199               7.22084              11.74789
   AR                   20.46564               2.02433               9.98508
   AR                   65.80358              48.15153              40.93967
   AR                   97.55602               9.60726              44.86369
   AR                   10.73267               7.30435              26.24121
   AR                   69.60668              44.09223              50.22025
   AR                   78.70555               0.72487              19.02066
   AR                   92.76185              13.39057              37.19606
   AR                   23.11721              10.14284               2.01786
   AR                   58.70328              18.76530              23.04137
   AR                   59.31253              26.99590              46.30446
   AR                   87.18958              50.83710              42.00180
   AR                   60.93233              37.60245              21.36013
   AR                  100.23694              44.86704              43.28096
   AR                   76.19810               1.50488              28.01083
   AR                   92.94732              29.11178              26.83700
   AR                    5.79898               9.33901              27.79207
   AR                   31.64624              29.59428               2.02251
   AR                   26.03151              10.21480              23.33122
   AR                   69.51479              25.13458              43.20312
   AR                   98.40275              35.61517              11.48290
   AR                   96.18573              50.44060              12.35014
   AR                   74.47979               7.18618              23.63158
   AR                   86.52708              38.68996              31.70840
   AR                   91.17246              44.19714              30.03433
   AR                   80.30239              16.94927               8.78583
   AR                   92.18316              11.73556              22.20157
   AR                   66.83803               6.71637               3.96433
   AR                   64.26702              29.62533              14.78499
   AR                   69.65091              24.66093              37.64442
   AR                   13.04070              21.41340              15.99393
   AR                   27.91905              20.94990              26.57141
   AR                   68.46852              42.07673               8.75833
   AR                   53.83510               9.32149              42.29412
   AR                   74.69036              23.10349              15.67726
   AR                   59.34608              14.15833              31.69252
   AR                   66.55565              38.77823              40.89262
   AR                    6.34448              12.61278               7.37076
   AR                   21.22966              15.90112              22.96848
   AR                   85.00652              15.17884               7.24849
   AR                   58.14976              48.60536              25.04512
   AR                   79.10903              18.28269              31.28818
   AR                   81.31111              49.02768              39.59898
   AR                   51.33490              47.89862              41.21893
   AR                   62.15071              41.51437              34.98151
   AR                   31.66342              26.12361               8.57803
   AR                   68.61207              20.52994              17.45767
   AR                   81.17209              45.20949               7.14779
   AR                   70.05169              20.93123              38.99980
   AR                   49.68969              14.87527              48.54013
   AR                   78.44266              27.48311              25.02225
   AR                   81.55586              18.83480              38.93090
   AR                   99.05489              22.63461              39.14876
   AR                   23.88000              12.90876              21.07179
   AR                   20.70616              14.67356              11.44896
   AR                   68.38812               3.56751               2.95720
   AR                   91.24548              23.49102              39.87030
   AR                    0.11094              26.36235              12.07438
   AR                   66.01770               1.98328              41.58191
   AR                   49.33955              46.40881              26.66500
   AR                   82.31956              48.40533              25.67208
