       391
            33.83973            53.50446
   AR                   12.42272              28.78880              13.96174
   AR                   18.81940              25.44501               3.83070
   AR                   10.78068              10.81714              19.76515
   AR                   21.81078               9.99756              12.15374
   AR                    0.60601              26.70330               5.98499
   AR                   26.78011               0.29350               0.03326
   AR                   17.59902              27.66909               9.53727
   AR                   13.10354               1.73556               4.49690
   AR                    7.74598               3.30252               3.42764
   AR                    1.48006               3.70578              11.09092
   AR                   26.50818              29.09503               4.79781
   AR                    4.21492               5.13297               9.13709
   AR                   29.89687              19.74742               1.77383
   AR                    8.52558              15.73306              11.63117
   AR                    9.44503              11.35021              23.31261
   AR                    5.81561              14.56175              18.75282
   AR                   12.73546              22.96938               6.31030
   AR                    2.44579              24.37880              26.08754
   AR                    8.69961               1.82316              27.05679
   AR                   26.95959              26.81180              27.54842
   AR                   26.79549              23.59308               2.63656
   AR                   20.10191               4.84601              31.62057
   AR                    1.91573              18.48999              29.91202
   AR                   14.82725              27.73340               2.65079
   AR                   18.82324              27.94354               6.23850
   AR                   22.67223              32.03662               2.94740
   AR                   28.68514              18.62646              18.61429
   AR                    9.56630               2.39137              16.14363
   AR                   29.59073               2.01091               5.72748
   AR                    9.53082              15.01031              20.02936
   AR                    5.25844               6.78941               5.11977
   AR                   33.13697              28.10781              11.35747
   AR                    1.31390               9.73534              30.82800
   AR                   24.11918               2.74720              24.28047
   AR                   19.81403              32.88751              21.71284
   AR                   31.84058              32.97999              21.03751
   AR                   30.40785               2.84657               0.90609
   AR                   23.62052               2.35137              13.36258
   AR                   31.52369               1.39598              11.38901
   AR                   14.07874               0.49686               8.54253
   AR                   20.79362              22.33192               0.66393
   AR                   12.68593              22.31510              27.86171
   AR                    4.78164              29.32255              11.40440
   AR                   29.96337              12.62743               2.30822
   AR                    2.47524              26.99747              11.63167
   AR                   15.35875               8.70647               4.91172
   AR                   16.86550              31.11283              30.71251
   AR                   23.19639              27.88897               6.64906
   AR                   32.72699               8.04227              13.53996
   AR                   25.98487               8.67120              13.09006
   AR                   32.02625              28.15956              30.06054
   AR                    6.12674               9.73446              13.80730
   AR                   21.84960              28.23077              11.60052
   AR                   11.68737               9.43264               6.36914
   AR                   22.65477              30.33998              21.52166
   AR                   20.46390               8.94206              18.99715
   AR                   18.97097              16.78320              24.02333
   AR                   22.92956              17.81906              25.67958
   AR                   26.85365              22.71196               7.18133
   AR                    6.40589              22.60021              10.94805
   AR                   13.87722              11.00092               1.29971
   AR                   23.66425               2.23471              17.43595
   AR                   32.92120              21.51211              23.03167
   AR                    0.08011               1.75504              23.65448
   AR                   23.89702              23.92527              14.09036
   AR                    7.97661               9.65387               5.87117
   AR                    7.49843               3.25522               7.69158
   AR                    1.52318              32.32959               5.06552
   AR                   21.93339              20.76578              16.36013
   AR                   12.96457              11.17920              31.72822
   AR                    7.12227               9.27224               9.68934
   AR                   22.62052              15.03595              33.67851
   AR                   18.60781              30.03685              13.21271
   AR                   15.09454              32.94772              27.96435
   AR                    1.42407               0.74601              17.40459
   AR                   16.73076              16.80095              14.93586
   AR                    1.31195               5.78821               7.79812
   AR                   58.42408               1.83809              48.82542
   AR                   86.24735              28.04873               6.36322
   AR                  100.53430              44.86935              13.08167
   AR                   55.53331              28.92859              44.28496
   AR                   94.26351              22.62013              41.98934
   AR                   57.52701              13.74341              15.51905
   AR                   73.27238              26.91478              47.88229
   AR                   75.86363              46.65628               6.93468
   AR                   91.05062              35.84146              20.89112
   AR                  103.33347              31.84165              47.23644
   AR                  100.91683              29.55301              48.71096
   AR                   88.87958              16.00864              15.88071
   AR                   72.77404               7.55439              29.32813
   AR                   88.30185              13.53280              12.87637
   AR                   53.76465              42.34416               7.02761
   AR                   70.92812              53.09416              45.06772
   AR                   83.81822              14.46637              31.75172
   AR                   71.47510              15.55104              14.93172
   AR                   53.26377              11.98543               1.29999
   AR                   71.83706              20.39178              36.96761
   AR                   72.09889              47.32717              13.29777
   AR                   97.48379              42.18727              18.12615
   AR                   56.93103              44.79083              12.96034
   AR                   94.72680              17.33611              32.12121
   AR                  104.23111              20.76720              34.17112
   AR                   85.49062              18.47362              35.51708
   AR                  103.31695               7.38245              30.40714
   AR                   99.40610              44.46460              20.26767
   AR                   64.03329              42.81210              27.17376
   AR                  101.18295              26.37140              13.39870
   AR                   85.51284               4.38729              25.43798
   AR                   92.19652              38.69248              42.15711
   AR                   67.51359              42.34652              50.38332
   AR                   76.07122              35.72280               2.97499
   AR                   90.93436              49.25689              26.84361
   AR                   74.24692              19.75891              22.71791
   AR                   70.64658              18.61307              33.94986
   AR                   55.60788              47.39127              10.35770
   AR                   55.61429              17.45010              32.17026
   AR                   83.87229              27.26396              16.92264
   AR                   86.20140              47.51694              45.78502
   AR                  101.05087              26.75609              46.25862
   AR                   59.85933              45.06827              39.71246
   AR                   62.59932              38.36610              35.14216
   AR                  101.67966              15.28439              37.23658
   AR                   91.66664              23.69185              34.63245
   AR                   88.62953               9.73015               6.40370
   AR                   53.75757              38.01217              42.24779
   AR                   66.06443               7.91413              25.59209
   AR                   69.34229              15.02735              36.96052
   AR                   93.66788              39.73677              29.87889
   AR                   52.31217              15.79440               8.24810
   AR                   73.83531              18.90011              41.65290
   AR                   62.63071               7.36531              23.42820
   AR                   81.81882              52.03769              34.52878
   AR                   97.04319              15.70642              23.65690
   AR                  102.40000              37.13104               8.63478
   AR                   51.43737              16.78378              27.63684
   AR                   89.48222              41.95314               9.21094
   AR                   51.74172              51.33899               9.23590
   AR                   63.12517              17.05604              22.81711
   AR                   79.50585              10.16279               1.82551
   AR                   93.84251              15.21299              14.36490
   AR                   59.91359              47.54583              25.53113
   AR                   52.54462              36.83686              38.08549
   AR                   56.90284              27.61929               0.91251
   AR                   95.83062              18.21728              42.28999
   AR                   75.10383              41.09116              32.75039
   AR                   70.24480              12.70200               4.70756
   AR                  100.07233              49.10949              26.14540
   AR                   90.72973              39.67610              46.14065
   AR                   79.97628              26.27074              37.87131
   AR                   89.85934              22.27835               3.76468
   AR                   77.52464              51.02570              23.90162
   AR                   77.57585              29.08659               1.51883
   AR                  102.23039              42.69171              42.26369
   AR                  102.87185              26.53649               9.57987
   AR                   62.98102              14.21525              52.80453
   AR                   89.47788              20.76951              40.47193
   AR                   87.59638              37.40505              49.51968
   AR                  100.93884               6.40608              19.34720
   AR                   67.86127              46.31439               9.74102
   AR                   91.06429              36.60803              50.83086
   AR                  103.36396              13.28655              53.24673
   AR                   66.96898              24.95033              30.82729
   AR                   60.47573              52.91374              40.30855
   AR                   64.24805              41.01663              53.22684
   AR                   96.24261              22.90054              22.79055
   AR                   62.13159               8.28306              52.44121
   AR                   61.44830              25.51941              30.89087
   AR                   83.56131              41.12705              52.11710
   AR                   98.49088               3.97773               9.17468
   AR                   91.50824              32.26400              11.80087
   AR                   74.77155               8.44614              24.46011
   AR                   89.01246               0.08945               7.50986
   AR                   94.60452              40.02617              44.55354
   AR                   89.90237              19.45769              46.50230
   AR                   97.97470              28.68610               0.21779
   AR                   75.30870              37.68477              20.82474
   AR                   80.88826              21.32333              23.77777
   AR                   66.26792              15.90785              26.46661
   AR                   59.70733              14.01508              39.42662
   AR                   73.36153              51.18819              39.79507
   AR                   58.63541              36.83668              49.52363
   AR                   62.39591              26.52695              51.37093
   AR                   76.86170              11.18271              37.42832
   AR                   68.65790              42.28066               7.14086
   AR                   60.91011              29.86884              31.43900
   AR                   84.02633               0.71108              41.07583
   AR                   64.18944              34.01337               1.87810
   AR                   72.83892              14.98070               6.17972
   AR                   63.92396              47.67764              39.53209
   AR                   79.23950              31.58784              52.61957
   AR                   94.11316              33.87441              44.14409
   AR                   52.71255              10.80742              24.44588
   AR                   76.88828              19.28798              47.79600
   AR                   58.54094              13.51381              19.12950
   AR                   86.04395              21.32542              47.50415
   AR                   82.88093               7.46952              23.83208
   AR                   63.36189              17.09340              12.66653
   AR                   93.38806              13.65843              46.63261
   AR                   83.72639              24.97068               7.91000
   AR                   91.10731               2.62724              16.67009
   AR                   78.14024               9.38444              44.52666
   AR                   90.55277              16.30852              39.54553
   AR                   81.82857              16.95102              32.47884
   AR                   92.19018              46.52959               9.71563
   AR                   93.54792               0.82976              36.56947
   AR                   51.49951              19.07195              10.11435
   AR                   74.81047              35.18893              25.36926
   AR                   56.09291              49.87958               8.14990
   AR                   74.51520              31.41138              47.80918
   AR                   84.23169              19.72096              50.39080
   AR                   71.90393              48.44497               4.70183
   AR                   57.58032              46.07942              27.94917
   AR                   85.07644              11.34117               0.53399
   AR                   70.20302              15.92748              48.09396
   AR                   55.33760              32.42481              23.72789
   AR                   69.21203              30.18650              27.83509
   AR                   94.40374              26.72193              26.50899
   AR                   58.20064               0.22349              20.13456
   AR                   98.73137               6.11349              33.29584
   AR                   63.05784               7.68174              29.12907
   AR                   75.43310              31.06298              13.79767
   AR                  102.01750              23.19686              19.00305
   AR                   60.66532              38.55190              17.44962
   AR                   80.65929              13.91636              28.45392
   AR                   96.39953              11.55995              22.98999
   AR                   79.64321              46.02686              10.10129
   AR                   75.48797              17.14187               3.71041
   AR                   74.81127               2.57942              11.63818
   AR                   72.36779              42.49360              34.34560
   AR                   95.75474              33.86553               4.36184
   AR                   52.34543              38.74948              22.57169
   AR                   64.23291              43.25803              38.34786
   AR                   71.04042              24.19897              39.12756
   AR                   68.08832              37.16377               7.68848
   AR                   98.86340              52.29909              41.75735
   AR                   83.69270              45.20320               3.04064
   AR                  100.38350              51.23987              29.31751
   AR                  101.19143              25.53578              33.46270
   AR                   63.27692              22.36715              37.88102
   AR                   89.99887              52.54201              26.91914
   AR                   59.18039               1.24027               2.78484
   AR                   86.33642              18.14154              45.82592
   AR                   63.36174               0.68157              24.58534
   AR                   79.03214              21.01730              49.91283
   AR                   93.47012              39.25454               4.91772
   AR                   95.39077              50.95310              21.97132
   AR                   74.85038              22.98382              23.65694
   AR                   85.45666              29.27400               0.50256
   AR                   79.25649              33.13285              19.75504
   AR                   95.63857              29.30830              48.70918
   AR                   80.74136              44.03826              24.94672
   AR                   70.11963              22.50775              45.49278
   AR                   95.36094              28.32977               5.27411
   AR                   59.26630               4.71006               5.89177
   AR                   80.93737               9.39262              40.57000
   AR                   59.66545              13.59860               7.13857
   AR                   63.76613              27.57392               0.68653
   AR                   91.86862              31.82362               8.54330
   AR                  103.54015              27.05878              20.15283
   AR                   97.86433              44.24134              42.43349
   AR                   54.98349               0.49864              15.89791
   AR                   90.67475              22.39949              50.66183
   AR                   72.22148              25.22256              34.69803
   AR                   54.86127              36.08882              48.28311
   AR                   88.55831              52.43762              46.52127
   AR                   88.53491              30.71490               3.74160
   AR                   80.42757              15.71710              11.20646
   AR                   55.36169              12.24460               6.94850
   AR                   52.03304              15.17100              15.11558
   AR                   68.93079              28.00296               9.33585
   AR                   60.28904              40.77920              13.31622
   AR                   82.82178              30.69114              23.79184
   AR                   54.01254              20.53055              47.72103
   AR                   52.01597              48.43964              48.63902
   AR                   56.30020               6.85806              43.71458
   AR                   58.61460              36.23647              36.35781
   AR                   89.30242              33.94776              52.76557
   AR                   74.00406              26.95472              51.36195
   AR                   60.08139               1.59191              33.39839
   AR                   54.52587              51.98912               3.55685
   AR                   66.09793              27.69413              36.65466
   AR                   90.27727               7.97477              26.95075
   AR                   63.72542              47.46583              35.06575
   AR                   99.35153              30.56412              37.62460
   AR                   79.41671               4.52617              39.52422
   AR                   93.12214              48.06792              24.10219
   AR                   83.38546              47.22495              51.78390
   AR                   73.51357              39.53494               8.58296
   AR                   64.72323              35.32115              51.07050
   AR                   81.79219              50.78925              23.46158
   AR                   96.01881               8.87839              46.75028
   AR                   65.58149              45.34789              47.65203
   AR                   55.84360              25.30155              27.61249
   AR                  100.18587              16.67367               2.41996
   AR                   90.20774               6.92546               5.49003
   AR                   65.27867              16.07154              15.52748
   AR                   58.41984              25.53544              36.93691
   AR                   94.78306               4.54955              32.84920
   AR                   51.71813              33.40816              36.92853
   AR                   97.79950              48.48835              17.90487
   AR                   55.42694              48.35905              53.50212
   AR                   52.62410               8.93430              48.34371
   AR                   80.37681              23.29073              33.20568
   AR                   89.03635               0.94020              20.01712
   AR                   99.50336              39.38261               9.26613
   AR                   98.88179              30.26311              24.10405
   AR                   99.41710              37.42027              29.20758
   AR                   93.54829              44.20456              25.41206
   AR                   76.52564              17.58474              30.58174
   AR                   88.58076              35.53240              37.43881
   AR                   68.22720              11.09876              38.49011
   AR                   72.28784              51.12688              51.27785
   AR                   58.79619              34.26959              29.16973
   AR                  103.44224               1.52396              19.17307
   AR                   98.16767              13.40082              11.61506
   AR                   93.54064              48.69227               6.23122
   AR                  100.71441              39.16137              38.26829
   AR                   62.00261              13.27480              42.31197
   AR                   72.67894              46.33662               1.01070
   AR                   99.04824              33.72733              42.57127
   AR                   94.27728              42.25807              47.31363
   AR                  100.76780               9.43955               9.44158
   AR                   80.85245              37.23998              29.34240
   AR                   96.75114               1.68473              26.17381
   AR                   71.48735              46.69885              27.73528
   AR                   94.29800              12.30612               4.33488
   AR                  101.87158              11.77588              36.52075
   AR                  100.44655               8.66106              34.97798
   AR                   78.97294              27.28576               4.24639
   AR                   50.92393              48.73862              27.73426
   AR                   73.70494              18.39858              28.50928
   AR                   67.97698              40.71876              20.54863
   AR                   93.27074              51.26703               8.96333
   AR                   95.64167              32.87742              20.21258
   AR                   81.53719              48.18230              45.29343
   AR                   99.87487              39.76382              19.71682
   AR                   52.83791               4.65870              17.63352
   AR                   99.37493              26.63885              18.93915
   AR                   88.25140              38.31651              40.13561
   AR                   61.79276               2.58702              51.93114
   AR                   92.07249              31.57923              20.74555
   AR                   56.73649              39.39235              25.59723
   AR                   56.33275               2.02972              53.49045
   AR                   84.46341              49.78012               9.35814
   AR                   85.92662              16.09806              48.63065
   AR                   84.44541              30.40463               3.48811
   AR                   75.53138              21.58118              38.62289
   AR                   68.78116               7.90045              42.56529
   AR                   54.41681              21.07158              20.58329
   AR                  102.13846               5.75281              23.50642
   AR                   60.55969              30.40670              52.59816
   AR                  103.18110              10.52118              19.47728
   AR                   61.16894              42.23350               5.90537
   AR                   82.06772               1.44461              27.70465
   AR                   94.82263               6.47494               0.60755
   AR                   61.41773              24.46932              34.41381
   AR                   53.57868              26.43908              18.91398
   AR                   84.28424              30.84903              12.61073
   AR                   59.34891               5.29534              51.23356
   AR                   99.86371               8.80620              50.02849
   AR                   89.74527              10.48550              42.83460
   AR                   92.74228              25.93306              29.49790
   AR                   59.80880              33.18149              48.18138
   AR                   82.49298               4.98661              15.84468
   AR                   57.41585              34.74175               7.75345
   AR                   78.65431               2.93041              10.32821
   AR                   66.59974              50.83323              41.08931
   AR                   88.50793              50.01648              24.50725
   AR                   85.61165              41.58938              44.77096
   AR                  100.15734              53.39197               1.03047
   AR                  102.32836              17.11276              11.29256
   AR                   95.99157              26.36990              21.16168
   AR                   52.11615              16.07635              49.77613
   AR                   91.75976              27.44427              44.32599
   AR                   94.83589              41.22207              39.12420
   AR                   75.59658              45.33214              10.78304
   AR                   82.59808               2.06083              35.00369
   AR                   71.56924              27.87203              20.47624
   AR                   53.23936              38.45475              30.87215
   AR                   72.13855              33.85610              33.45292
   AR                   64.40246              30.10344              12.89079
   AR                   97.05822              27.00269               7.70918
   AR                   93.66039              50.94033              43.59597
   AR                  104.05648              52.66184               2.78843
   AR                   96.10029               0.78369              32.65610
   AR                   97.13719              28.52037              45.40365
   AR                   65.19766              30.60145              26.83634
   AR                   58.68573              42.57311              44.36857
   AR                   79.22933              42.57140               9.91028
   AR                   71.92148              30.59630              11.49431
   AR                   12.24036               4.54272               6.01517 FRACTIONAL
