       421
            34.31390            51.48878
   AR                   61.22405              39.56092               5.48255
   AR                   54.60084              39.97685              46.90219
   AR                   96.93443              15.42196              12.70508
   AR                   86.61081              30.36794              38.27873
   AR                   17.50965              27.13220               0.40212
   AR                   78.32070              12.95048              41.99225
   AR                   72.33862              19.81256              16.95924
   AR                   96.26307              37.28502              17.31453
   AR                   90.18042              44.16779              11.92726
   AR                   81.99156              38.67442              16.75091
   AR                   68.12644              12.63559              13.04043
   AR                   68.95340              35.49419              37.85001
   AR                   83.46876              41.63204               5.76320
   AR                   75.15520              27.24876              24.27820
   AR                   11.35537              33.90104               1.33195
   AR                   88.91251              43.46015               2.17998
   AR                    9.93311               7.41026               1.01833
   AR                   53.42469              18.78554              49.46132
   AR                   52.26780              31.63102               8.12882
   AR                   58.39241              51.27744              34.97045
   AR                   14.47490              11.96389               4.70606
   AR                   94.16517              43.15219              46.67287
   AR                   82.42432              35.45498              10.16411
   AR                  101.21085              29.09560              48.02353
   AR                   25.73864              15.57006              17.77193
   AR                   75.72180              22.76365               9.57397
   AR                   70.42651              37.63284              16.60219
   AR                   69.39893              17.39557              30.70042
   AR                    8.13405              12.07700              23.91565
   AR                   61.77115              17.82446               3.94324
   AR                   60.03735               1.42767              41.53146
   AR                   86.37060              32.80192               3.09472
   AR                    8.30025              17.86879              12.54147
   AR                    4.73532              23.96360              22.34286
   AR                   96.25021              21.74437               8.19262
   AR                   13.92534               0.20979              13.14274
   AR                   64.87253              28.88608              37.48537
   AR                   13.92541              10.27735              16.57614
   AR                   99.37910              43.76431               2.24646
   AR                   89.23291              18.58996              43.98495
   AR                   77.22526              40.45437              31.97862
   AR                   92.05843              45.27264              34.66515
   AR                   83.41479              34.76869               6.54398
   AR                   85.28932               1.96350              13.16311
   AR                   67.86169              35.91123               5.33250
   AR                   96.98977              32.21107              25.74985
   AR                   88.23595              36.19226               7.09297
   AR                   95.65224              33.26184               8.32856
   AR                   83.86228              36.33060              46.84904
   AR                   55.60472              34.11853               3.54724
   AR                   84.86109              47.67631              46.94688
   AR                   93.80828              21.75276              40.23345
   AR                   82.90324               7.15616              49.31271
   AR                   92.74115               9.46683               1.81277
   AR                   53.58636              51.34241              50.36572
   AR                   51.55261               7.83477              25.41902
   AR                   91.23113               1.21750               9.69423
   AR                   85.90729               4.55850              51.19447
   AR                   88.40337               4.80309               3.89047
   AR                   54.93528              20.77938              30.91617
   AR                   83.92939              13.83584              24.25157
   AR                   92.61052              46.68661               1.42432
   AR                   97.21837              18.14971              43.15841
   AR                   71.18671               1.02447              39.00897
   AR                   79.04243              45.89277              32.38337
   AR                   79.91390              11.81696              30.29634
   AR                   16.88541              19.15697              33.23061
   AR                   72.76195              49.64603              27.94668
   AR                   81.13237               7.27508              22.80495
   AR                   19.55202              21.21258              19.64752
   AR                   17.42347              13.61627              14.48694
   AR                    3.23131              19.20434              31.26022
   AR                   83.60851              14.48376               8.56017
   AR                   74.97413              48.47563              36.23066
   AR                   82.60842              17.35702               5.67478
   AR                   59.17983              41.96634              13.69370
   AR                   68.56346               0.66665              41.60619
   AR                   53.96952               8.79047              10.34386
   AR                   82.45920              15.44405              32.72527
   AR                    8.29104              23.09851              16.99742
   AR                   53.10347              30.86784              12.45620
   AR                   10.81918              33.15604               6.05211
   AR                   14.72493               4.97285              24.25142
   AR                   80.90934              44.86143              40.75376
   AR                   77.26245               5.47206               7.67811
   AR                   19.65910              17.55956              30.35955
   AR                   75.55417              28.36375               6.54739
   AR                   84.74480               4.93200              29.21671
   AR                   89.71539              25.88480              37.70586
   AR                   87.46086               4.56587              21.22942
   AR                   90.26034               4.70895              13.92091
   AR                   70.06535              16.68206              51.01051
   AR                   95.11909              25.96598              46.96867
   AR                   86.56006              21.11495               7.44459
   AR                   83.62138              28.09098              10.33706
   AR                   70.22143              11.07953               0.25086
   AR                   82.10219               0.11227              44.05718
   AR                   88.69611               3.52403              41.89278
   AR                   18.06703               0.86574              33.40580
   AR                   78.99012              29.82967              50.68054
   AR                   23.88606              13.67485               9.81977
   AR                   23.60652              27.53502               8.88218
   AR                   60.59324              43.73521              43.19290
   AR                   67.25603              25.29241              49.48277
   AR                   52.12912              10.63031              45.54740
   AR                   92.11593               4.41918              42.31477
   AR                   75.96974              30.66042              17.82059
   AR                   90.08562               1.64173              27.77075
   AR                   82.84676              10.01791              45.62078
   AR                   67.39923              24.32921               1.50064
   AR                   87.06527              36.24561              43.04330
   AR                   91.44318              24.19489              16.18807
   AR                   82.40298              41.76360              24.24228
   AR                   55.91331              15.19747              20.81598
   AR                  101.53608              25.47625               8.41365
   AR                   71.62416              46.49571               6.02181
   AR                  100.38709              44.78664              16.72961
   AR                   87.53393               5.03306              17.97614
   AR                   86.82327              21.08900               2.34170
   AR                   95.72636              41.09217              15.07070
   AR                    9.81276               3.99134               0.60251
   AR                   59.51663              38.03138              43.38012
   AR                    4.17835              13.54910               8.70262
   AR                   52.62179              22.70393               7.11905
   AR                   60.81460              35.40869              36.91494
   AR                   76.61354              51.01252              22.90639
   AR                   64.96394              16.95135              20.61637
   AR                   73.80818              41.12637              43.92200
   AR                   31.28389              33.94463              13.09244
   AR                   79.21913              18.05234              50.59820
   AR                   52.37474              18.12981              43.88356
   AR                   74.77056              24.35858              12.77986
   AR                   61.64753              24.81368              37.85555
   AR                   85.46853              46.66674              23.68885
   AR                   94.48504              12.80788               1.70698
   AR                   84.21970              26.61493               1.34618
   AR                   54.88051              46.57507              32.12242
   AR                   30.11606              23.80386               9.97313
   AR                   90.04251              27.98510               1.78263
   AR                   16.57313              30.04270              22.58823
   AR                   93.92940              41.57551              23.37801
   AR                   54.99405              39.63438              20.36888
   AR                   90.73551              49.15508              50.87256
   AR                   80.77975              15.30250              26.36739
   AR                   59.00579              42.02476              45.66641
   AR                   81.17841              37.31065              50.63623
   AR                   70.13600              40.89448              22.05127
   AR                   69.05047              37.65006              31.40840
   AR                    1.54987              19.30736              26.94044
   AR                   92.49242               3.56590              34.15916
   AR                   16.23020               5.03572              20.62607
   AR                   51.96760              43.16413               0.22354
   AR                   78.05243              48.18942              48.94656
   AR                   31.78140              31.58405               8.41658
   AR                   67.84307               6.30581               7.81711
   AR                   26.36548              14.36351              20.93118
   AR                   68.80590              26.90555              24.42233
   AR                   16.18676              26.26647              16.59345
   AR                   16.07903              28.31859               6.14156
   AR                   57.65767              31.06211              18.45616
   AR                   28.56144               3.71131              17.06667
   AR                   14.92522               3.32591              13.03757
   AR                   60.45806              47.88160              16.38249
   AR                  102.39977               9.44595              38.94829
   AR                   57.30397               5.49746              49.00747
   AR                   56.11292              19.63883              23.55226
   AR                   68.38428              13.33205              36.74985
   AR                   58.67060              45.66320              10.78926
   AR                  102.07721              40.04968               0.05576
   AR                   27.53257              10.38353               4.35453
   AR                   51.82829              13.80083              34.64107
   AR                   69.06585              24.08120               8.41733
   AR                   95.79114              49.10801              18.84977
   AR                   58.05342               1.69104              27.21912
   AR                   56.13521              27.30643              26.23720
   AR                   96.77664              37.08974              10.11838
   AR                  101.39865              48.25180              45.37842
   AR                   27.39729              12.97405              14.78274
   AR                   89.12645              44.76445              27.39049
   AR                   87.95669              33.65292              19.91142
   AR                   80.37990              23.30717              32.96880
   AR                   66.17736              29.11604               9.31635
   AR                   10.10019              13.64608               4.39038
   AR                   61.65423               9.63823              49.22742
   AR                   29.66180               1.83725               3.94282
   AR                   58.30492              18.03715              36.19895
   AR                   57.02934              22.05455              51.48552
   AR                   66.63717              29.96696              43.94948
   AR                   93.22996              32.55457              10.85152
   AR                    0.38174              28.06707              19.97691
   AR                   80.93347              26.02393              50.03863
   AR                   97.46746              48.33368              13.23367
   AR                   51.76180              47.30211              26.64017
   AR                   91.56705              40.91788              26.74690
   AR                   72.71547              23.18380               6.88818
   AR                   97.94132              41.21491              10.90558
   AR                   95.30437              26.12763               6.86064
   AR                   83.43956              21.25683              26.32839
   AR                   79.64183              22.72975              28.91665
   AR                   89.13275               9.72342              38.72542
   AR                   30.81452              12.59783              20.41107
   AR                   53.78893              14.56787              17.46332
   AR                   98.39023               8.60802              14.63737
   AR                   60.47587              15.25821              21.16274
   AR                   73.42724              14.55989              28.78670
   AR                   75.70025              11.61443              37.87409
   AR                   64.51244              13.01272              27.99062
   AR                   96.04841              13.75592              46.17264
   AR                   52.77220              13.72410               9.79954
   AR                   16.16470               7.30090              33.19241
   AR                   78.38814              17.81586               8.74324
   AR                   78.16891              37.92034              15.36065
   AR                   90.60914              39.29248              11.58315
   AR                   23.74880              32.75951              33.55706
   AR                   82.36865               2.38230               5.31202
   AR                   92.06328               8.14068              47.17318
   AR                   60.38998              38.81657              27.67992
   AR                   27.42291              26.06399              27.27556
   AR                   70.98408              37.15324              23.14223
   AR                   77.05248               1.24722              44.07551
   AR                   27.66680              10.95598              19.08350
   AR                   19.18526              28.24039              11.98866
   AR                   88.50108              13.81887              41.76083
   AR                   84.90141              14.18887              49.20011
   AR                   97.01451              44.86222              47.47095
   AR                   52.01925              26.80909              29.55719
   AR                   32.86679               6.13055               6.05242
   AR                   58.11289              14.14903              34.64442
   AR                   94.80617              10.06592              22.42207
   AR                   73.15255              48.53096              20.48662
   AR                   80.97809              28.30967              14.45156
   AR                   71.57555              47.16913              40.13304
   AR                   71.48616              23.07458              46.43459
   AR                  101.76805              23.57584               0.70021
   AR                   70.39270               7.81606              45.75874
   AR                   69.65395              31.57894              28.33373
   AR                   67.50495              45.97266              49.80279
   AR                   55.04413              45.17305               9.71849
   AR                   75.07065              19.88272              41.78419
   AR                   68.99270              26.73789              40.56516
   AR                  101.32209              10.08470              10.00190
   AR                   98.59669              11.85238              41.14181
   AR                   54.34073               8.54801              50.41151
   AR                    4.30307              11.67885              19.03970
   AR                   60.40610              31.32992              16.17516
   AR                   77.73757              30.62588              32.33629
   AR                   57.61925               3.24887              20.24391
   AR                   96.69600              41.35840               0.72312
   AR                   29.83969              27.59362               5.54315
   AR                   20.51111               9.27496              23.47549
   AR                    7.01499              28.27317              14.16855
   AR                   77.00342              41.55020              19.33021
   AR                   59.24633               7.35116              33.15692
   AR                   62.62025              22.65659              13.16535
   AR                  102.49130              29.78949               4.76874
   AR                   93.99514              24.69341              42.24506
   AR                   83.62964              40.50893              39.28341
   AR                   65.57484              37.05663              35.66004
   AR                   63.11060              29.57163              46.79836
   AR                  102.15748              49.74018               6.36771
   AR                   86.14522               0.64852              39.85514
   AR                   76.53039              38.44544              50.88196
   AR                    0.13212              31.56758               3.73136
   AR                   78.14271              33.41777              14.04620
   AR                    8.09809              21.41769              31.50396
   AR                   30.41577              32.60319              32.24795
   AR                   79.71071              34.89957              32.57926
   AR                   60.47238               0.03562              24.27854
   AR                   80.93649              23.45972              24.91963
   AR                   76.85300              15.55988              20.59974
   AR                   90.15140              19.03618              50.02234
   AR                   24.26614              32.03512              11.40949
   AR                   98.51765               8.19177              23.42610
   AR                   86.94810              30.61520               5.87607
   AR                    7.43359               0.89175               3.72921
   AR                   93.82604              11.36935              48.56176
   AR                   27.40984              24.45220              31.68172
   AR                   62.62275              27.17280               2.71890
   AR                    5.89624              26.96782              24.09449
   AR                   93.83292              50.22881              50.42114
   AR                   75.02374              13.29416              34.20539
   AR                   96.93657              40.25486              34.55409
   AR                   87.21497              21.45965              41.22148
   AR                   78.20510              44.93879              47.55281
   AR                   63.54418              32.76877               5.90178
   AR                   29.97824              10.21097              31.57452
   AR                   31.90774              29.84384              20.22337
   AR                   30.59476               3.02230               6.89433
   AR                   52.35844              41.49228              31.81797
   AR                   85.20518              34.67538              39.91534
   AR                   96.87813              20.90887               1.93007
   AR                   75.14064              37.34673              48.08051
   AR                   18.25943              31.05519              15.33776
   AR                   16.96205               9.69721              11.19692
   AR                   68.40756              44.36977              38.52206
   AR                   24.11981              10.86834              15.12407
   AR                   92.02260              35.61119              26.65575
   AR                   53.04128              40.61333               2.67253
   AR                    0.17933              28.93901              12.94930
   AR                   97.47213              31.72731              11.13936
   AR                   66.27789              32.91071              35.58011
   AR                   22.37805              32.38473              15.28074
   AR                   83.50398              38.78504              28.96706
   AR                   57.59381              37.24915               7.38038
   AR                   90.82274              25.14877              33.41917
   AR                   99.21259              46.09482              50.00512
   AR                   22.62904              29.04707              13.41012
   AR                   62.35591               1.01803              50.74166
   AR                   52.69006               6.31034              42.78672
   AR                   23.13125              20.96142               7.81785
   AR                   87.99658              15.97698               4.38166
   AR                   11.76767               2.22990              20.07657
   AR                   90.50615               9.81979              19.87632
   AR                    7.68945              29.63365              22.65091
   AR                   26.16552              25.12671               0.11550
   AR                   92.55886              24.42988              51.19127
   AR                   96.13001               7.82771              34.13969
   AR                    7.17391              27.90515              10.51250
   AR                    8.70488               8.87359               6.40355
   AR                   31.83652              22.21599              26.59844
   AR                   98.97102              23.16705              11.36168
   AR                   84.89086              42.03380               0.36119
   AR                   99.01494               1.58993              24.75222
   AR                   60.75090              10.82644              30.18792
   AR                   83.90520              24.95786              27.44378
   AR                    0.10594              28.86141              34.29747
   AR                    7.39508               2.58011              19.85949
   AR                    0.83268              33.49832              14.67189
   AR                   57.44655              46.28357              24.50593
   AR                   99.54945              42.93083              45.83501
   AR                   99.99003              38.95851               6.12176
   AR                   14.76370              29.51280              29.81537
   AR                  100.39709              17.43174              49.52376
   AR                   68.86384              12.99354              43.93623
   AR                   12.77940              32.66700              24.32324
   AR                   93.54816              39.27396              32.25031
   AR                   99.63520              41.32945              23.58243
   AR                   18.66322              33.85420              21.36952
   AR                   85.39764              45.12151              37.18708
   AR                  100.54167              21.82579               7.77466
   AR                   96.16305              27.57591               1.82305
   AR                   76.38588              10.34995              18.27874
   AR                   12.82541               8.64484              33.76150
   AR                   76.91485              47.80750              30.21078
   AR                   93.20734               8.18075              10.51655
   AR                   13.71457              12.02212               0.96184
   AR                   32.58361              26.92473               3.84215
   AR                   56.67265              41.25637              50.05917
   AR                   84.25929              12.87278              11.75634
   AR                   18.50988               9.41698               7.11531
   AR                   56.24565              31.61732              27.01121
   AR                   77.54117              38.99522               3.11923
   AR                   29.08484               0.03267              17.68005
   AR                   98.94593              19.72536              16.33402
   AR                    4.17738               0.51074               9.07150
   AR                   28.41575              21.37311              32.53486
   AR                  100.58295              45.21852               6.15650
   AR                   88.40849              37.20538              27.60223
   AR                   92.90970              26.11704              10.58927
   AR                   68.58382              14.22869              29.84301
   AR                   58.55455              40.33254              33.60160
   AR                   81.66767               8.59782              30.22664
   AR                   73.31564              25.34582              27.55189
   AR                   51.99080              23.12809              44.96108
   AR                   76.60308              41.99824              42.10767
   AR                   92.01668              22.45690               5.52711
   AR                   86.81875              11.99863              23.01105
   AR                   75.25065              15.67093              47.36378
   AR                   67.43379               3.86882              19.16231
   AR                    4.45564               6.44847              20.03420
   AR                   14.25623              14.15119              21.57846
   AR                   83.33783              38.31128              25.29021
   AR                   87.56602              43.01148              44.82560
   AR                   87.41878               8.37445              19.90549
   AR                   88.98244              30.57200              10.00974
   AR                   11.55496              16.39349              14.17081
   AR                   59.77081               4.81087              22.71831
   AR                   60.08968              43.10298              37.90212
   AR                   86.93326              13.20267              26.46394
   AR                   87.93061              24.85900               2.99158
   AR                   31.56700              10.78707              27.31823
   AR                  100.39289              41.89881              14.03770
   AR                   74.02172              28.10153              45.59399
   AR                   86.76448              51.48588              21.89475
   AR                   99.36147              50.07424              22.27243
   AR                  100.68300              15.94275              20.29179
   AR                   72.35182              44.16463              33.61342
   AR                   76.93240               7.00192              18.40712
   AR                   69.94595              29.06666              18.42897
   AR                   23.94529              26.88829               5.19563
   AR                   74.99627               0.70675              34.63553
   AR                   15.96872               3.73300              30.81524
   AR                   21.48658               1.46230               6.63222
   AR                   60.83080              21.20131              44.79328
   AR                   76.72826              15.38951              24.40577
   AR                   95.12532               5.61535              39.60419
   AR                   58.88209              27.50422              12.13587
   AR                   97.90160              31.46709              33.49907
   AR                   90.65984              14.92870              34.06210
   AR                   28.13783               5.74704              13.94327
   AR                    1.14989               4.33035              13.47581
   AR                   75.39489              12.30514              21.49997
   AR                   25.09126              28.73472              21.68912
   AR                   63.72268               1.91438              19.57070
   AR                   86.32185              24.76481              29.96564
   AR                   24.98408               3.80808               7.03468 FRACTIONAL
   AR                   98.00673              14.19025               0.62045
   AR                   53.95276               3.88226              23.73499
   AR                   85.20513              24.67893              35.28830
   AR                   77.40801              25.07493              31.97200
   AR                   72.04231               6.73416              35.58311
   AR                    4.50774              11.94358               0.52816
   AR                   97.03310              33.43866              19.39889
   AR                   70.91252              26.47315              15.17901
   AR                   52.44058              32.10301              43.65898
   AR                    6.38681              23.30225               4.65047
   AR                   57.51955              17.14090              16.50948
   AR                   95.59995              38.56180              29.50145
   AR                   89.33684              16.73530              39.81109
   AR                   68.50644              49.27404               9.74190
   AR                   59.69666              16.07149               1.21244
