       206
            31.47012            77.11284
   AR                   89.43146              34.97566              46.22502
   AR                  111.57416              71.05291              16.88311
   AR                   65.58790              62.61575              11.71736
   AR                   76.22808              29.74208              18.10172
   AR                   68.65163              61.67646              45.85254
   AR                   90.63452              13.91231              12.98691
   AR                   70.03196              15.35110              19.44312
   AR                   88.85267              19.34958              64.20858
   AR                   76.56791              42.33276               8.52126
   AR                  107.45224              57.04275              43.53554
   AR                   83.49613              50.67558              49.04627
   AR                   99.35393               9.26542              14.21650
   AR                   80.09492               3.29610              44.96824
   AR                   70.83425               3.26077              16.95860
   AR                   51.30941              40.62816              31.47604
   AR                  103.72748               9.20988              40.75534
   AR                   67.42768              11.90464              68.93015
   AR                  105.29617              54.43389              15.38989
   AR                   60.22784              68.04817              42.37932
   AR                  123.36707              62.34027              41.25402
   AR                  116.04868              11.55326              58.41893
   AR                   90.10014              65.52096              21.95274
   AR                   83.70730              49.93394               7.69244
   AR                   83.04194              49.66466              54.31144
   AR                  120.14008              65.02921              56.33020
   AR                   61.69004              68.50771              27.60576
   AR                   81.94443              28.52838              16.82099
   AR                  116.57096               7.23847              28.58072
   AR                   74.52970              17.75914              36.59056
   AR                   50.09220              15.32252              12.23762
   AR                   56.38373              47.72028              47.19209
   AR                   89.41544              47.20050              75.93995
   AR                   85.39682              15.16941              45.42413
   AR                  100.48039              24.47842              71.48148
   AR                  112.73449              68.15998              54.84353
   AR                    0.40989               9.88190               7.69799
   AR                  112.67407              65.35688              25.30146
   AR                   18.01340               1.36254              17.66931
   AR                  103.03207              34.42859              33.23532
   AR                  109.61172              26.70801              53.80515
   AR                  116.32332              64.85966              72.48678
   AR                   98.60003              47.84874              66.47768
   AR                   78.12037              38.74055              34.32463
   AR                  111.54333              70.81071               5.36737
   AR                   98.20496              15.43236              67.14184
   AR                  122.87405              44.82001              60.24108
   AR                   87.97777              45.70465              21.97170
   AR                   99.03743              29.86401              71.84331
   AR                   62.90095              65.34693              51.99921
   AR                  121.91172               7.49377              56.48635
   AR                   68.19468              26.72039              25.00463
   AR                   98.73873              60.68399              40.56713
   AR                  122.12515              27.03497              59.05984
   AR                  117.38187              31.98461              54.40401
   AR                   79.48604               3.29617              62.97751
   AR                   90.55675              66.66563              15.91153
   AR                   94.28399              45.06661              31.36440
   AR                   12.17544              15.42499              22.34890
   AR                  121.38874              37.88217              43.54513
   AR                   79.34519              39.30859               9.69222
   AR                   66.94247              20.73990              11.97036
   AR                  123.95052              59.23774              12.38463
   AR                   88.59945              12.71066              23.53967
   AR                    4.85460               8.03436              17.07194
   AR                   60.26601               8.88744              35.76195
   AR                   77.52463              49.20320              51.85878
   AR                   71.71173              30.14061              43.55047
   AR                   90.09349              68.01736              32.69585
   AR                   76.80123              29.34725               6.21380
   AR                   66.42623              19.28205              24.69735
   AR                   60.42934              26.96861              25.34772
   AR                  110.88022              47.12032              27.90412
   AR                  114.70730              24.90532              51.00347
   AR                  112.52737              56.23220              76.73239
   AR                   62.18793              43.59748              31.97195
   AR                   97.66814              42.47964              28.58333
   AR                   57.31010              67.56670              35.67035
   AR                   85.37059              14.42746              41.63208
   AR                  118.44618              41.16473              47.40359
   AR                   52.67294              31.40237               7.57525
   AR                   24.72414              31.29903              17.00512
   AR                   90.12556              72.03646               1.97787
   AR                  102.72895              74.08796              34.28041
   AR                   81.61517               4.84394               4.01865
   AR                  116.65282              53.63994               4.59872
   AR                  114.15672              15.76594              21.99121
   AR                   53.44012              37.09450              51.70973
   AR                   59.21692              16.55526              64.83591
   AR                  103.74598              77.03288              60.84546
   AR                  123.26697              19.99726              10.84778
   AR                   93.86370              10.90105              59.89117
   AR                   60.78622              50.61404              19.24502
   AR                   80.10275              76.57029              42.70477
   AR                   88.01594              45.56752               2.75921
   AR                   51.68043              75.21576              46.47845
   AR                   57.86897              46.28161              24.13702
   AR                  107.90534              28.64069              16.39297
   AR                   72.67863              35.04391              48.57304
   AR                  105.05345              21.37713              17.07782
   AR                   53.45266              66.87021              35.71255
   AR                   52.41686               0.51469              51.27709
   AR                  110.53807              32.81512              36.84419
   AR                  114.11147              30.28771               5.37051
   AR                   88.28001              39.44954               5.41390
   AR                  123.66406              60.02050              68.63863
   AR                  105.48148               5.48148               2.55201
   AR                  123.13821              11.08554              76.24254
   AR                   67.97134              15.58417              46.24518
   AR                   78.56326              67.23603              10.67889
   AR                   96.73395               6.54147              73.17131
   AR                   95.69247              75.94481              41.28537
   AR                  114.84296              39.92192              21.48612
   AR                   83.38399              38.67736               8.11904
   AR                   97.57788              41.14273              41.68433
   AR                   81.77593              11.09149              54.73905
   AR                  123.58651              47.04573              44.39001
   AR                   64.15295              44.08603              25.50438
   AR                   51.53909              25.97404              61.49497
   AR                   80.12875              31.66731              22.20131
   AR                  122.90772              76.67838              34.97518
   AR                   47.37754              67.23933               6.72361
   AR                  112.11345              35.14842              61.87882
   AR                   54.87304               2.54377              65.60993
   AR                  123.29848              20.66212              68.76939
   AR                   49.01813              52.87427              30.88228
   AR                   12.32301               7.81907              29.91533
   AR                   75.48696              30.39824              59.65020
   AR                   57.69759              36.12943               5.67358
   AR                  103.25766              42.42231               1.54471
   AR                   62.77000              41.23173              49.75720
   AR                   47.55797              55.30174              11.15283
   AR                   76.92810              20.82904              73.86161
   AR                  112.76812              45.55661              24.57540
   AR                   63.03976               8.16450              64.83543
   AR                   27.84707              17.98171              16.69821 FRACTIONAL
   AR                   48.59890              35.93600               5.68972
   AR                  120.77686              31.45806              50.94855
   AR                  118.97342              61.12587              24.57910
   AR                   95.94522              68.54823              33.54652
   AR                  122.89851              12.81745              25.85343
   AR                   78.97508              53.47549              55.20545
   AR                  106.66910              25.44803              10.69110
   AR                   72.25697               1.02429              21.52337
   AR                   99.67236               6.22883              68.96916
   AR                   80.65460               0.16115              59.50322
   AR                   58.08737              25.79920              55.30318
   AR                   88.32316              48.60918              37.51473
   AR                  117.24517              15.59587              36.08859
   AR                  119.47508              58.53759              49.79761
   AR                  106.57121              21.92817              76.35685
   AR                  121.99677              64.99497              61.74458
   AR                  119.55168              38.81611              68.77054
   AR                  110.41887              22.53928              50.53332
   AR                   73.13224              15.63144              53.43194
   AR                   67.89166              62.55671              36.25223
   AR                    3.19236              28.29946               3.89686
   AR                  106.98966              18.12839               3.88742
   AR                   76.15039               2.63041              39.30693
   AR                    0.24931              21.85169              10.06215
   AR                   52.41150               8.17584              27.04136
   AR                  107.78448              33.84153              44.07620
   AR                  104.89267              39.28081              31.73265
   AR                    4.17171              28.61201              29.79193
   AR                  117.08075              70.46547              68.61713
   AR                   60.71137              42.82979              22.55690
   AR                   51.88570              59.75689              63.58206
   AR                  103.12716              76.71435              30.78002
   AR                  115.82102              67.61893               7.24010
   AR                  115.23818              73.48018              70.56562
   AR                   86.17885              24.85719              40.36466
   AR                   80.39380              14.89676              40.69027
   AR                   90.33514              40.61878              21.94665
   AR                   85.14029              32.18850              15.25037
   AR                   96.72912              51.62234              63.53741
   AR                   56.74478               8.13213              27.85199
   AR                   99.46219              74.70480              76.09354
   AR                   91.41462              72.24970              55.13968
   AR                   11.95195               1.85685              30.22593
   AR                    5.83177              28.47545               9.37182
   AR                  105.69421              13.19398               3.40051
   AR                  118.25226              54.99099              66.20988
   AR                   92.24743              47.87081              48.77061
   AR                  117.84604               9.01549              25.32599
   AR                   48.10262              15.69228              44.80820
   AR                   49.44974              49.74122               1.04854
   AR                  107.59734              75.84219              63.65916
   AR                   58.85748              10.64716              23.94065
   AR                   97.80868              50.05798              71.96489
   AR                   93.32259              54.05015              12.75705
   AR                  104.36623               4.50946              66.34663
   AR                  102.53190              67.74672              73.99199
   AR                  103.59358              31.99618              35.83580
   AR                   74.77514              24.06667              70.21317
   AR                   77.51977              70.70118              70.38347
   AR                  112.30091              11.64673              34.61396
   AR                  105.41657              62.49363              48.23230
   AR                   53.06736              64.00428              59.04562
   AR                  123.76775              28.64520              43.52128
   AR                   81.03984              59.46257              44.80597
   AR                   69.64118              29.34852              71.72621
   AR                  108.70058              37.34512               8.57820
   AR                  103.30147              15.81584              12.07534
   AR                   55.19963              71.28843              61.48232
   AR                  119.24302              24.06200              59.80702
   AR                   60.67276              29.55576              68.01888
   AR                   56.17482              41.06738              55.84585
