       421
            34.10819            50.21370
   AR                   83.43688              40.76303               9.28048
   AR                   13.81372              27.64182              28.70924
   AR                   67.93166               5.94007              37.79824
   AR                   62.62768               4.08790               6.50710
   AR                   10.44350              23.81503              25.52903
   AR                   92.89583              27.25786               1.12776
   AR                   80.86974              45.27156              12.05174
   AR                   68.45615              25.87660              15.78622
   AR                   77.58544               5.09150              36.69460
   AR                   92.93221               4.15467              11.37656
   AR                   56.24765               7.70008              36.01735
   AR                   60.06119               6.50254              37.20837
   AR                   29.80813              16.68166              21.02591
   AR                   74.84315              19.98360              23.21736
   AR                   13.55542              19.81189              25.26540
   AR                   65.21302              14.10853              35.16888
   AR                   59.93676              35.71865               7.26105
   AR                   75.55292              15.82213              42.88956
   AR                   90.62133              16.97146              23.54080
   AR                   57.79187              22.73122              23.09136
   AR                   81.97330              41.94811              32.54617
   AR                   89.38772              14.73827              48.37488
   AR                   79.22894              13.64260              24.40590
   AR                   81.76995              24.44046              36.73732
   AR                   79.64693              17.57751              28.95970
   AR                   99.96177              33.05811              12.64035
   AR                   99.30376              43.44418              43.74388
   AR                   65.31182              12.55487              22.43218
   AR                    8.83462              17.82317              26.18630
   AR                   25.05226              25.24235              30.18384
   AR                   85.67181              43.91757               2.57777
   AR                   81.87724              14.73179              44.08518
   AR                   76.33631              38.93653              20.96977
   AR                   18.16587              13.85443               5.72134
   AR                   84.25436              13.79587              47.17625
   AR                   86.55185              24.61878              34.52711
   AR                   78.96837              30.13169              19.90902
   AR                   93.56374               8.67408              44.77841
   AR                   18.17820               0.99137              11.57702
   AR                   11.38696               2.31841              29.82831
   AR                   97.31269              10.29704              43.93885
   AR                    4.17969              33.15347               3.10980
   AR                   95.48058               9.66668              49.13167
   AR                   64.45582               3.32664              30.08206
   AR                   66.42688              14.58377               3.26140
   AR                   95.80993              14.96534               2.74640
   AR                   53.88101               0.04290              40.36683
   AR                   60.00150              14.29163              42.55993
   AR                   77.62518              40.88667              11.65628
   AR                   97.11569               9.08054              35.93291
   AR                   66.00832              46.76979              40.97009
   AR                   16.78225              33.04923              22.45948
   AR                   65.07274               7.74648               5.07615
   AR                   94.69781              16.91154               9.87031
   AR                   30.74532               4.44494              26.23783
   AR                   69.82129              38.68569              31.76697
   AR                   70.08349              37.37018              17.10015
   AR                   81.19896              17.91202              39.86231
   AR                   75.22896              29.22094              31.12418
   AR                   64.39494              29.36441              33.03277
   AR                   30.72154              11.30227              12.18115
   AR                   31.94756              28.66607              33.95930
   AR                   95.34096              38.81990              46.68483
   AR                   94.31226              24.54440              17.62309
   AR                  100.73969              23.63420               7.61569
   AR                   81.47862              32.22343              48.27092
   AR                   33.98432               6.34493               7.85205
   AR                   89.16156              13.63164               1.59597
   AR                   82.90450              28.03550              33.29219
   AR                   74.63924              48.28170              14.53985
   AR                   75.13080              27.94237              14.71605
   AR                   66.64425              36.69434              27.69109
   AR                   90.84678              17.47706              10.79702
   AR                   63.40070              26.63329              19.18488
   AR                  101.21483              47.26430              31.78951
   AR                   59.92505               7.91461              50.08897
   AR                   33.92837               1.00034              13.71549
   AR                   80.38156              29.67330              23.85212
   AR                   62.22160              19.25332              34.68243
   AR                    9.92516               0.27597              32.30918
   AR                   19.03075              23.36525              10.22244
   AR                   51.64297               7.70804              11.02433
   AR                   85.09996               1.41152              21.79202
   AR                   58.31702               8.05647               2.83535
   AR                   55.07213              21.82494              26.37990
   AR                   89.74108              12.01803              30.84234
   AR                   86.03661               6.61231              25.42719
   AR                   56.83233              49.75892              23.63856
   AR                   79.06548              45.03534              41.40046
   AR                   51.20349              22.61273              32.30771
   AR                   25.79801              30.94576               1.65022
   AR                   73.34639              49.20496              32.74508
   AR                    1.39272              12.27444              19.18951
   AR                   56.66624              11.11762               5.57751
   AR                   94.70468               7.36117              10.56122
   AR                   65.03447              24.11727              50.17115
   AR                   20.11261              16.30610              28.62043
   AR                   30.80212              14.46302               6.95023
   AR                    2.13910               6.42652               1.19987
   AR                   74.03764              23.88827              24.81662
   AR                   15.09952              23.23242              11.85000
   AR                   52.63133              24.61201              19.88019
   AR                   27.78600              19.74679              26.47340
   AR                   86.39427               2.95067              30.97653
   AR                   63.62779              40.71372              10.90050
   AR                   32.71382              30.91556              19.68443
   AR                   52.49665              31.30381               1.50159
   AR                   56.25459              49.58725               3.04704
   AR                   16.10307              15.78125              29.98061
   AR                   84.64100               8.60275               2.88424
   AR                   14.12421              12.64438              31.39974
   AR                   89.76067              46.03336              27.00285
   AR                    8.60361               8.43357              11.66361
   AR                   54.22226               1.32422               1.08299
   AR                   11.80262              12.61985               9.52589
   AR                    9.07724               0.41312              11.30240
   AR                   19.98046              20.50285              33.59293
   AR                   72.90541              45.33864              27.68957
   AR                   59.87116              13.85330              39.44169
   AR                   69.22173              16.21011              19.57469
   AR                  100.81968              43.17783              32.03470
   AR                   63.72155              13.87193              12.04021
   AR                   73.88876               3.87397              15.13332
   AR                   99.39594              25.90234              31.53790
   AR                   59.42027              38.81177               9.64967
   AR                   86.50842              24.88826               0.95069
   AR                   84.94373               2.95635              24.86002
   AR                   59.53181              46.95427              43.69217
   AR                   77.14854              22.74419              17.89014
   AR                   91.23240              37.91087              30.30755
   AR                   70.84491              11.39220              35.40580
   AR                    7.70627              24.58725               2.38909
   AR                   68.82680               4.91726              13.47793
   AR                   57.65575              20.57860               9.32835
   AR                   14.58775              34.06978              24.71828
   AR                   94.84061              32.98367              17.87681
   AR                   64.44632              12.55432              48.29865
   AR                   73.37655              13.58887              38.48620
   AR                   75.95714              25.75190              46.83580
   AR                   85.14136              44.34035              39.31290
   AR                   65.01387               5.25867              39.16323
   AR                   57.22359              14.78464              16.70376
   AR                   64.83250               1.83298              12.61735
   AR                   70.92612              32.37695              13.48064
   AR                   72.72038              19.45017              41.42108
   AR                   65.92231              20.53795              49.43399
   AR                   77.11734              31.48039              37.15419
   AR                   80.10585              15.79201               0.57308
   AR                   26.09904               3.02764              22.25500
   AR                   73.22720              17.53199              38.84374
   AR                   22.14780               4.68708               6.44116
   AR                   91.90377              30.29810              17.66899
   AR                   98.03225              39.38155              17.12405
   AR                   51.80700              44.12782              49.74543
   AR                   92.88762              15.39171              36.68355
   AR                   82.35402              42.35177              12.80998
   AR                   92.05968              32.55227               5.56887
   AR                   75.74110               1.38727               5.70432
   AR                   92.65322              49.55369              43.22510
   AR                   53.27311               9.81163               6.58851
   AR                   32.90195              21.87358              27.76636
   AR                   63.68567              43.93575               7.13547
   AR                   80.50493               5.18873              18.15183
   AR                   18.47548              32.25008              29.68085
   AR                   90.23213               2.09138              35.23124
   AR                   72.96960              19.43105              36.24151
   AR                   72.49466              40.12326              36.89042
   AR                   69.70328              31.68131              38.42747
   AR                   84.74923              18.92377              45.80645
   AR                   27.84859               4.26352               2.48206
   AR                   23.52694              18.13236              32.09804
   AR                   86.41330              19.99902              23.24786
   AR                   20.27646              22.97232              17.57772
   AR                   28.37224              13.25107              14.29152
   AR                   99.02939              39.67357              40.08514
   AR                   93.92261              25.03750              21.77493
   AR                   96.96270              30.05456              14.92762
   AR                   85.65076              10.42347              14.50743
   AR                   31.60261              19.06995               6.65366
   AR                   52.73213              15.49587              43.14033
   AR                   18.62537              20.76425              14.22657
   AR                   62.61330              36.80448              21.18819
   AR                   89.22671              33.13703              35.43537
   AR                    7.91477               8.05239               4.55356
   AR                   77.67339              42.64866              46.68366
   AR                   24.86416              22.76332              27.85385
   AR                   71.95766              11.80535               6.90672
   AR                   55.33746              18.81155              34.46429
   AR                   89.41069              21.76481              24.19458
   AR                   59.23383               1.66405              43.97606
   AR                   85.27747              38.37734              37.81275
   AR                   72.67323              29.64131              40.85287
   AR                   60.72196              21.90750              43.94268
   AR                    0.21343              18.26784              16.25544
   AR                   73.75129               3.56981              32.24844
   AR                  100.32904               3.13702               5.28109
   AR                   10.18328              10.07506               8.14650
   AR                    2.30908               7.30925               4.60230
   AR                   89.29360               5.59759              10.59148
   AR                   77.39257              49.66401              17.31079
   AR                   21.72718              27.58562              12.98864
   AR                   81.69035              40.38251              35.66238
   AR                   69.37023               2.75246              28.90750
   AR                   24.81909               5.97615              20.24058
   AR                   58.35616               9.52877              21.86886
   AR                   85.56639              49.91359              45.16492
   AR                   81.84588              15.73424              10.27822
   AR                   80.84972              13.05123              16.80481
   AR                   58.53605              17.15261              32.49010
   AR                   21.70492              30.14824              22.93847
   AR                   89.07838               7.47623              37.54578
   AR                   93.20653              45.14082              43.77445
   AR                   98.66985              41.59075              12.23059
   AR                   77.12431              33.83837               3.35444
   AR                   27.08879              33.65261              22.23202
   AR                   57.59891               5.73935              40.29413
   AR                   65.36918               2.58466              23.85892
   AR                   80.60388               0.17423              45.73579
   AR                   62.92963               9.40188              44.20955
   AR                   56.94572               4.09344               8.57231
   AR                   10.60421              14.47424               1.28876
   AR                   74.96064              44.24475               8.01466
   AR                   76.34258               1.31004              37.06841
   AR                   31.10646               9.81126              16.99882
   AR                   64.18357              23.99149              16.21242
   AR                   96.87679              46.91765              13.90362
   AR                   92.06467              24.34781              28.94122
   AR                   98.66218               9.50881              11.27676
   AR                  100.63271              10.57846              24.25087
   AR                   83.56056              34.34675               5.99310
   AR                   67.50672              15.47362              23.36645
   AR                   30.21283               7.62521              11.39256
   AR                   83.20878              44.35791              17.40165
   AR                   30.00608               0.94573              13.37440
   AR                    5.53523               6.43746              12.77282
   AR                   13.65639              17.22978              10.59149
   AR                   70.68140              24.51497              46.99617
   AR                   86.79285              11.46981               2.05376
   AR                   62.20677              49.26448              38.29777
   AR                   67.79058              19.46269              45.88055
   AR                   88.90317              48.48548              42.85909
   AR                   67.42080              23.97471              27.88879
   AR                   61.97306              37.13792              49.17399
   AR                   79.80008              46.23290              49.72280
   AR                   56.50213              36.24425              25.02998
   AR                   94.02325               3.58430              30.22839
   AR                   31.29467              20.22630              21.61483
   AR                   88.33288              17.27764               5.90180
   AR                   68.96161              41.28545              36.77466
   AR                   68.28362              26.72281               6.09835
   AR                    3.00391               1.93682              22.37937
   AR                   85.09403              29.55420               8.59122
   AR                   63.56337              40.54747              20.67894
   AR                   99.00057              17.75816              10.37579
   AR                   75.36669               7.34682              24.23048
   AR                    9.76469              30.36219               5.74519
   AR                   62.70674               9.19498              28.57310
   AR                   81.45495               7.39695               9.35745
   AR                   82.94352              37.52683              32.82638
   AR                   32.48921              11.40692              23.76612
   AR                   94.56268              17.45415              13.97106
   AR                   79.53612              33.76607              11.92117
   AR                   80.31923              35.14183              26.85949
   AR                   32.61617              19.75317              10.19243
   AR                   33.80800              16.59349               8.14550
   AR                   13.94204              23.69992              27.63045
   AR                   87.00312              33.84615              38.46428
   AR                   89.47740              23.44822              39.24576
   AR                   33.31349              15.14557              21.46867
   AR                    8.19334              19.19757              18.45672
   AR                   53.28417              33.32129              40.15353
   AR                   90.31027              32.42827              10.78860
   AR                   89.20324              27.29592              19.78761
   AR                   94.16236               1.43179              48.81756
   AR                   33.85369              16.99694              30.83416
   AR                   78.28355              39.90321              41.26690
   AR                   54.26507              32.97375              45.11587
   AR                  101.06011              45.69659              41.60271
   AR                   52.01401              32.87827               6.20899
   AR                   99.43982              50.20800              36.08149
   AR                   82.18640               4.17725              40.29173
   AR                   60.21199              32.20475               5.53475
   AR                   90.72176              18.69094              19.88380
   AR                   81.70175              43.44729               9.13608
   AR                    9.88013              14.65390              12.82000
   AR                   86.18665              36.46287              44.39898
   AR                   52.22790               5.41114              37.87741
   AR                   51.17978               8.97009              14.69095
   AR                   72.93079              45.96146              39.03384
   AR                   73.51369              43.65761              35.80744
   AR                   83.66962               5.23049              43.27091
   AR                   55.55336               6.07643              28.44057
   AR                   75.91829               9.30564              37.30246
   AR                   79.74131              10.77377              10.71447
   AR                   57.83651              46.02294              24.25291
   AR                   73.66149              31.85802               9.73046
   AR                   73.73885               3.49858              28.39803
   AR                   59.09631              24.79580              18.81641
   AR                   75.80038              17.45173              30.57334
   AR                   97.65085              20.19811              35.40243
   AR                   97.61803              48.51403               9.94320
   AR                   69.86056              37.72744               0.70121
   AR                   75.44724              39.91763              14.64187
   AR                   73.32938               1.46401               2.43667
   AR                    4.46572              14.28717              11.11259
   AR                   65.28774              29.69788              43.75516
   AR                   71.36299               9.68237               3.28147
   AR                   57.94469              11.07585               0.93649
   AR                   19.29408               0.25812               8.57138
   AR                   55.53799              45.69451               4.99939
   AR                   52.62578               8.80647              42.91754
   AR                   75.55938              46.68404              11.45508
   AR                   78.27560              36.49751              18.82222
   AR                   59.88693               5.61334               5.27324
   AR                   85.08335              32.83094              34.20410
   AR                   55.00335              39.31390              13.82535
   AR                   94.14838              24.59105              39.32691
   AR                   66.71373              40.96113              24.74563
   AR                   78.64778               1.87465               0.60370
   AR                   95.60878              48.27540              46.96714
   AR                   26.82039               4.60966              32.63923
   AR                   84.02311              16.19771              39.32046
   AR                   69.35209               5.50921               5.90559
   AR                   10.20657              18.09738              11.83569
   AR                   58.33278              42.19862              42.95612
   AR                    6.41022              31.31843              12.04269
   AR                   81.42802              28.63445               9.08545
   AR                   19.40857              33.11673              25.47206
   AR                   99.53316              41.64578              34.97167
   AR                   64.98361              16.24408              49.82363
   AR                   12.60085               1.52517              16.54394
   AR                   61.26512              13.38694              28.47960
   AR                   73.27295              21.24447              28.57345
   AR                  100.71171              21.84310              12.49650
   AR                  100.14897              31.51296               8.67219
   AR                    3.65141              10.31178               0.09883
   AR                   77.32297              39.16193              36.67902
   AR                   74.00189              39.65579              40.07339
   AR                   91.43393              26.00111              13.09104
   AR                   97.65031              13.42024               7.94120
   AR                    7.75026              22.19070              31.70176
   AR                   71.07605              34.01882              18.67683
   AR                   54.84589              24.44287              10.29970
   AR                   57.85844              34.95879              39.43833
   AR                   94.45214              36.10543              40.56565
   AR                   14.17604               8.53369              29.17923
   AR                   55.53402              33.12153               5.78577
   AR                   91.73352              11.78125               8.69318
   AR                   87.50910              43.27099              10.41474
   AR                   80.72664              14.85350              30.32936 FRACTIONAL
   AR                   15.06198              11.37424               1.63656
   AR                    7.59467              25.16790              26.72558
   AR                   79.68056              28.51208               0.95992
   AR                   54.91788              19.89649               3.91463
   AR                   66.51250              31.23033              22.87450
   AR                   71.57314              41.39097              14.46499
   AR                   17.82689               4.11843               7.60248
   AR                   58.01779              16.98976              39.64324
   AR                   76.90134              21.08981              26.80051
   AR                   95.22001              26.13152               4.62141
   AR                   54.61929              33.78065              14.99870
   AR                   61.82702               5.85868              45.16972
   AR                   53.52674              36.27607              22.43802
   AR                   85.66121              10.98851               6.97616
   AR                   20.34084              14.16478              13.42824
   AR                   22.52293               6.74840               9.94743
   AR                   68.81553              49.42038              35.80732
   AR                   71.04398               8.26768              16.02247
   AR                   97.68622               7.21787              26.52814
   AR                   75.08152              48.08740              36.63607
   AR                   84.60537              34.27001              46.82404
   AR                   68.84440              14.55825              28.80662
   AR                    6.51942               1.70185               8.42536
   AR                   82.55755              10.63911              31.34651
   AR                   60.26367              25.14991              42.20441
   AR                   52.95911              11.43788              40.47379
   AR                   11.76825              31.46552              23.75266
   AR                   66.62990              41.94844              11.35277
   AR                   89.82472              49.75580              25.87120
   AR                   74.95894               7.10878              34.15826
   AR                   23.11259              31.45409              33.82476
   AR                   97.71091               2.47736              49.20141
   AR                   10.21083               5.69634               0.83631
   AR                   21.77826              21.28775               9.69945
   AR                   31.58941              26.47429               8.00451
   AR                    0.38603              20.60533               3.60471
   AR                   74.85087              27.31023              35.64945
   AR                   61.86325              44.37607              27.83399
   AR                   73.14139              27.16883              10.21326
   AR                   75.50194              48.34637               8.29337
   AR                   12.18456              19.71556              31.87670
   AR                   68.66298              28.28905              41.81170
   AR                   75.93943               2.23382              49.26152
   AR                   91.66922              27.08048              37.44685
   AR                   93.04134              13.54409              13.32152
   AR                   54.41834              46.11526              35.38249
   AR                   32.71205               4.33745              23.73107
   AR                   90.91620              36.79865              33.87444
   AR                   97.64052              38.54971              43.52155
   AR                   82.93783               0.13401              48.05474
   AR                   85.34184              43.34443              35.14657
   AR                   56.88149              17.98610              27.00714
   AR                   87.64548              21.38465               4.26212
   AR                   69.57278              29.75550              10.08178
   AR                   90.84666              29.96010              43.06664
   AR                   19.92400               0.43925              18.65792
   AR                   70.91043              23.37937              34.12765
   AR                   15.04364              20.27773              29.46960
   AR                   59.31923               9.98297               8.77296
   AR                   55.32312               2.69232              41.81238
   AR                   66.65942               3.47870              32.64723
   AR                   64.49803              48.09967              46.05982
   AR                   66.86239              21.35162              21.17187
   AR                   93.55858              27.91664              47.87449
   AR                   29.78683              28.74674              21.70251
   AR                   93.74695              18.17696              25.94941
   AR                   31.12043              25.87240              29.23656
   AR                   93.17910               9.15918              14.23180
   AR                   26.54681               3.78338              18.40360
   AR                   68.27971               2.32223              11.58244
   AR                   61.16226              38.31189              24.32302
