       391
            32.67659            56.34310
   AR                   99.10872              47.61749              45.66490
   AR                   61.01947               7.66210               2.54731
   AR                   78.11472              14.44990               7.91304
   AR                   80.70758              23.87906              22.37987
   AR                   55.88186              44.03513              34.99984
   AR                   56.47564              27.48950              33.94227
   AR                   54.32597              12.27422              30.70234
   AR                   96.35779              54.50929              26.23825
   AR                   81.13746              17.11099              10.71508
   AR                   27.48059               6.22291              16.80770
   AR                   49.92498              39.55336               4.36116
   AR                   23.18477              27.59527               8.78471
   AR                  104.44137              38.86955              41.52191
   AR                   52.47339              15.27189              33.68382
   AR                    1.37332              16.61909               7.67628
   AR                   99.86925               9.88105              44.55749
   AR                  103.49685              31.37600              48.68744
   AR                   80.59044              20.70313               0.61855
   AR                   57.14851              30.36925              48.01690
   AR                   23.45013              20.00462              18.14310
   AR                   81.68771              46.79824              18.48644
   AR                   91.06510              15.79967              31.42214
   AR                   99.80716              31.09465              34.86137
   AR                   95.58975              27.42896              10.16371
   AR                   54.58792              51.69695              42.40473
   AR                   59.06381               8.17679              46.49614
   AR                   87.50818              22.27014              12.31202
   AR                   93.75305              48.66932              32.22516
   AR                   88.20635               3.11377              47.17159
   AR                   74.60806              16.16506              11.14116
   AR                   94.93576              28.39603               2.72319
   AR                   59.72662               1.96552              24.13681
   AR                   20.18754               2.60017              20.65167
   AR                   49.28809              39.62988              35.59510
   AR                   84.46670               3.62705              34.69565
   AR                   22.36604               4.44518              24.96501
   AR                   77.17880               8.06587              49.76290
   AR                   23.86186              22.35989               2.34322
   AR                  101.52969              32.34016               5.89545
   AR                   58.09450              37.74550              36.73514
   AR                   57.57856              38.79779              40.15317
   AR                   99.40274              55.75998              24.11263
   AR                  101.05104              54.15687              33.30166
   AR                    9.77159              29.03346               1.60409
   AR                   93.97971              54.63549              17.81558
   AR                    1.06499              12.76399               7.98071
   AR                   72.69127              11.50157              55.08127
   AR                   98.06108              35.32622              11.59582
   AR                   64.78579              42.59889              24.57367
   AR                   78.13658              49.39345              21.83904
   AR                   84.56597              16.89874              17.60245
   AR                   83.29063              16.85713              26.22412
   AR                   74.37574              16.79478              15.50693
   AR                   64.52232              18.66610              38.93481
   AR                   76.79370              25.99539              41.98159
   AR                   71.17815              55.67739              16.36815
   AR                   25.90633               6.22925               2.91105
   AR                   50.69074              11.13087              31.61176
   AR                   65.29831               0.83595              45.21772
   AR                   19.87015               0.20655              23.79632
   AR                   88.52548              45.29225               9.93404
   AR                   82.96263              42.16380              50.58446
   AR                   56.93620              35.39500              34.21876
   AR                  103.79218              12.96902              23.08121
   AR                   85.39541              29.79188              46.11026
   AR                   70.88550              15.56330              42.25120
   AR                    7.59568               3.95518               9.07466
   AR                   70.86552              51.30121              47.81951
   AR                   97.60501              48.67604               3.37681
   AR                   92.17388              29.80922              24.62379
   AR                   68.38681              19.80939              49.68243
   AR                   53.33474              49.90626               3.44768
   AR                   88.64476              41.66117              27.11377
   AR                   58.30669              22.64222              42.86794
   AR                   60.84310              54.08368              36.61893
   AR                   76.68179              19.53401              22.12825
   AR                   54.56186               6.51081               0.96130
   AR                   13.99285              15.95446               3.75272
   AR                   67.72083              16.60721              26.10524
   AR                   70.27217              42.25182              18.12193
   AR                   80.41519              18.44837              25.12428
   AR                   68.33895              19.54676              20.73232
   AR                   69.38367              51.98837              31.96347
   AR                   49.70814              36.69181              37.92991
   AR                   83.98355               0.81675               5.38546
   AR                  100.73763              35.62375               5.07590
   AR                   24.33553              31.16105               6.26600
   AR                   74.92917              22.60259              20.30460
   AR                   28.37759              23.96065              23.38013
   AR                   74.11971              16.54845               1.76147
   AR                   28.51067               8.08870              28.77635
   AR                   74.43844              10.05596              48.70727
   AR                   63.53493              30.29262              18.61187
   AR                   97.34217               6.24981              42.35029
   AR                   76.47377              54.27805              23.28580
   AR                   77.33957               6.95862               2.52554
   AR                   52.69305              49.36075              44.73959
   AR                   97.57315              21.60922              32.97087
   AR                   92.62337              24.55562              48.19856
   AR                   59.09884              15.18192              25.45048
   AR                   68.78804               1.81842               3.93122
   AR                   70.50006              17.23799              48.29056
   AR                   24.68005              22.68693              31.01187
   AR                   58.02504              39.52435              33.51844
   AR                   70.16593              43.86401              55.65882
   AR                  104.05365              49.13689               3.03399
   AR                   21.96676               1.91536               5.43409
   AR                   85.69375              19.97280              18.61853
   AR                   74.54873              17.08986              39.91802
   AR                   25.65359               4.61445              28.32303
   AR                  100.69073              24.80471              24.41280
   AR                   99.82768               2.73617              26.57123
   AR                   84.19060               1.71400              47.35475
   AR                   15.05661               5.69774              27.47785
   AR                   89.87218              54.57135              36.08715
   AR                   94.17136              10.13160               8.47030
   AR                   91.67731              11.18221               2.61090
   AR                   87.33067              23.73263              54.78703
   AR                   81.77416              12.59010               4.64018
   AR                   84.44299              12.63287              36.61496
   AR                   84.63456              18.85172              13.78306
   AR                   49.66108               5.59477              14.12167
   AR                   86.94815              41.08112              37.02291
   AR                   74.91484              16.14427               5.63899
   AR                    3.36615              23.25777              11.84033
   AR                   60.02123              13.15463               3.93619
   AR                   87.91469              20.08439              14.96382
   AR                   68.50558              44.56139              31.36237
   AR                  100.08873              51.94122              51.84606
   AR                   17.69473              14.07825               1.63912
   AR                   59.13397              36.28108              52.23032
   AR                   53.68675               1.65047              14.27642
   AR                   92.26702              34.15007              33.11293
   AR                   54.12218              25.44088               0.24621
   AR                   78.12946               1.57381              52.51123
   AR                   70.68073              32.84969               5.22630
   AR                   81.36269               5.23189              40.55199
   AR                   75.15496              37.31740              39.41004
   AR                    4.75161               1.97927               0.61670
   AR                   31.43476              15.62415              13.49450
   AR                   77.80926              48.33673              39.37968
   AR                   85.23526              14.23141               2.40425
   AR                  104.40573              55.15610              12.18172
   AR                   95.89448              14.57001              52.86535
   AR                   17.02120              31.83334              29.15715
   AR                   68.75982              12.49985              29.04341
   AR                   61.97729              37.04200              55.92481 FRACTIONAL
   AR                   65.92884              55.08555              16.54362
   AR                   64.60824              36.89499              32.76319
   AR                   74.43183              24.98626               4.84009
   AR                   75.66017              16.41059              27.65514
   AR                   85.03713              14.14158              12.01001
   AR                   62.71758              20.27850              21.38510
   AR                    0.86194               7.48024              28.29514
   AR                   94.61044              42.68743              20.15735
   AR                   54.90451              40.97973               0.74821
   AR                   93.30813               2.57303              33.09572
   AR                   53.23968              38.10878              32.68650
   AR                   95.39274              12.97023              11.50505
   AR                   71.39431               9.84881              39.05702
   AR                   98.14643              46.04809               9.32267
   AR                   88.00051              39.51493              12.87975
   AR                   74.30169              42.64611               0.13906
   AR                   53.11291              49.74676              18.75529
   AR                   63.20892              51.02411              38.36396
   AR                   12.01576              10.41683              10.40735
   AR                   59.60785              16.55390              46.66219
   AR                   60.28518              51.86499              47.63889
   AR                  105.02640              43.04526               7.86343
   AR                   78.41949               4.83868              43.61362
   AR                   88.85843              41.37155              42.68111
   AR                   89.02432              15.16170              21.51367
   AR                   84.35334              34.47069               5.93051
   AR                   14.01458              17.32964              16.64420
   AR                   95.08236              18.99736              16.86864
   AR                   67.67297              10.29186              21.81816
   AR                  103.28298              34.14032              14.72188
   AR                  101.08066              28.06634              37.71634
   AR                   56.03012              42.93907              16.39452
   AR                   58.13224              49.36251              23.99799
   AR                   86.53281              33.58706              31.01524
   AR                    8.91104              19.80308              22.95698
   AR                   87.03442              34.53571               9.24711
   AR                   76.88943              47.81584              44.03575
   AR                   71.75207               9.89336               2.60605
   AR                   79.29422              43.01252              28.98718
   AR                   67.86318               4.08846              32.44730
   AR                   91.39725              45.09544              30.14880
   AR                  100.84431               4.30729               1.96612
   AR                   81.28934              36.92100              10.89976
   AR                   64.45025              19.22803              29.23186
   AR                   89.96150              14.57520               2.87269
   AR                   66.09037              23.19988              43.39120
   AR                    7.05594               3.08077              17.92108
   AR                   30.35534               7.26046               7.88652
   AR                    5.68297               4.76919              31.42564
   AR                   74.93815              30.75315               2.28292
   AR                   24.18308               3.51653               2.91726
   AR                   79.93180              17.51705              21.26471
   AR                   91.87555              41.08082              13.37335
   AR                   50.52154              13.21759               6.59124
   AR                   79.68804              52.34068              26.28521
   AR                   81.20578              36.55747               2.57404
   AR                   79.58679               3.83474              47.74473
   AR                   51.71662              45.78025              10.02614
   AR                   22.42683               5.22907              21.19110
   AR                   91.59137              30.92178              52.58068
   AR                   67.32853               3.17454               9.06264
   AR                   64.41370              49.00573               6.18280
   AR                   17.97827               9.78074              16.02836
   AR                   49.34993              54.42150               1.73312
   AR                   83.73742              15.77988               7.26042
   AR                   50.84056               6.85876              43.47464
   AR                   57.70126              15.47476              12.79172
   AR                   14.86534               1.80310              28.49081
   AR                   61.78556              28.97336              45.56075
   AR                  100.92207              28.42464              27.46989
   AR                   50.39083              24.23421              39.88049
   AR                   95.15758               6.08298              13.08730
   AR                   87.92904              51.34375              25.96581
   AR                   17.02781               8.03171               4.91655
   AR                   89.71272              18.21109              29.13787
   AR                   66.63387              26.99681              18.19045
   AR                   32.49338              29.37730               3.43317
   AR                   66.10598              41.00757               6.81938
   AR                   98.01478               6.78720              46.04415
   AR                   91.12147               2.22032              20.70299
   AR                   27.61804              27.04057              19.11483
   AR                   71.85098               8.00605              28.69531
   AR                  103.28049              37.37931              53.79017
   AR                   67.70411              44.23763              35.27356
   AR                   96.41193              27.36199              17.99274
   AR                   63.43024              29.31238              26.74932
   AR                   54.93556              34.40132              52.06076
   AR                   98.03637              49.16036              13.98360
   AR                   60.33677              41.89606              10.03449
   AR                   23.15576               0.55888              14.44394
   AR                   65.44887              14.88618              27.38363
   AR                   71.92331              32.12035              18.43139
   AR                    3.17956              18.91635               9.21250
   AR                   67.65503              25.31178              21.73566
   AR                   55.85203              12.22076              17.59960
   AR                  103.81747              15.20062              53.21795
   AR                   60.11255               5.14075              50.55549
   AR                   57.43077              18.98368              45.05930
   AR                   50.58304              27.50976              11.92314
   AR                   85.84414              33.29814              36.65134
   AR                   60.26952              55.35014              41.57769
   AR                   91.53328               5.80643              35.14380
   AR                   63.77238              17.03851              24.67959
   AR                   80.06267              18.01609              43.77471
   AR                   98.37191              32.82854              45.24529
   AR                   23.46256               1.03360              21.11705
   AR                   62.47602              51.24733              13.27043
   AR                  100.44628              49.86274              22.98477
   AR                  103.86748              13.40216               0.55260
   AR                   52.81134              29.74428              22.43064
   AR                   50.42609               6.70147              53.71546
   AR                   66.42827              54.89535              31.19651
   AR                   90.75418              35.30787               9.97766
   AR                   70.58838               6.61782              11.42431
   AR                   20.16417              15.58514               0.08338
   AR                   50.35941              33.63176              13.33700
   AR                   86.38860               5.29545              42.88789
   AR                   94.86610              27.10946              49.88726
   AR                   74.96478              45.03701              51.93561
   AR                    2.69162              18.45279              32.39824
   AR                   94.31849               8.04540              35.93748
   AR                   61.33967              35.80404              34.16236
   AR                   66.63909              52.17347               8.43749
   AR                   98.22197               7.52548              15.67031
   AR                   97.34714              36.28586              50.14874
   AR                   84.27074              22.29583              39.02228
   AR                  105.33890               7.53342              40.34044
   AR                   82.11837               2.14145              51.98799
   AR                   61.07749              42.77937              27.00789
   AR                  103.36089              29.16818              34.36151
   AR                   51.79005              37.12158              46.71904
   AR                   77.18521              34.73042              42.69251
   AR                   65.54827              34.67502              39.84418
   AR                   71.57782              48.00860              38.83811
   AR                   97.96709              20.43644               8.02823
   AR                   73.02019              21.75531               1.54032
   AR                   53.62400              29.23308              51.91985
   AR                   67.40097              11.21473              14.53087
   AR                   67.70856              34.72662              23.06957
   AR                   94.17606              22.02966              24.54688
   AR                   87.35932              48.59101              23.58256
   AR                   21.10515              29.27068              14.35497
   AR                   95.95382              35.76159              18.82406
   AR                   49.92991              15.87592              36.70316
   AR                   62.11143               0.58221              12.85094
   AR                    2.06331              13.80223              29.69795
   AR                   10.22370              28.13443              29.60525
   AR                   68.17314               4.97822               1.61543
   AR                   56.56301              24.84165              15.48232
   AR                   98.16796              26.33655               5.78003
   AR                   62.64394              43.80356              32.38846
   AR                   96.31414              19.37536              20.49604
   AR                   74.80612               1.16734              41.86900
   AR                   79.77688              25.94557              32.28382
   AR                   49.29205              34.87611               2.82269
   AR                   52.09117              12.91758              27.18122
   AR                   83.03321              50.51583              47.35621
   AR                   66.80732               2.32313              20.75860
   AR                   97.22736              33.39730              23.35660
   AR                   56.87434               6.25359              53.83700
   AR                   62.70243              53.59107               9.75049
   AR                   90.10223              18.42143               9.23168
   AR                   61.98587              12.34807              42.94607
   AR                   83.97451              11.65530              24.20319
   AR                   69.51144              40.48748              55.96658
   AR                   90.95617              19.15261              49.73092
   AR                   24.04976              11.90955              10.70113
   AR                   58.08735              41.62999              12.95195
   AR                   99.91273              40.07664              11.70699
   AR                   30.55285               1.05247              19.97632
   AR                  101.20716               1.03234              36.01591
   AR                  103.10669               8.92065              13.47078
   AR                   49.79113              26.44023              49.26589
   AR                   12.39042              14.58997              15.73585
   AR                   30.67994               4.89170              14.91037
   AR                   87.33524              16.61066              32.75889
   AR                   29.65502              23.68868              26.48257
   AR                   84.99823              28.57967               9.02738
   AR                   70.43928              46.66349               9.03710
   AR                   22.68459              30.67938               2.89156
   AR                   58.61616              47.46989              39.99315
   AR                  101.41553              45.33120              22.89850
   AR                   98.56878               3.65206              31.13410
   AR                   74.10649              52.47648              49.52834
   AR                   56.45239              39.88576              16.71799
   AR                   93.67778              53.18636              11.00397
   AR                   54.47436              15.76245              10.54538
   AR                   98.75784               6.16749              12.00654
   AR                   66.15269              47.04788              31.90222
   AR                   95.78424              51.47049              30.54241
   AR                   72.14890              31.96119              47.09969
   AR                   88.35855              54.76077              28.70041
   AR                   87.34922              50.33464              43.06473
   AR                   61.11044              32.32913              27.07133
   AR                   91.97220               7.47950              43.19540
   AR                   54.54170              13.20243              49.61464
   AR                   74.18788              25.58812              23.86362
   AR                   80.77590              10.81264              36.63947
   AR                   72.06246              10.11370              26.18817
   AR                   77.27052               3.24267               4.90326
   AR                  104.39517              28.94500              46.45085
   AR                   99.31067              20.32704              22.06726
   AR                   85.50316              51.80394              18.48503
   AR                   86.30300              21.89678              33.84613
   AR                   23.32183              16.44261               5.51202
   AR                   96.72669               3.91167              40.18328
   AR                   28.22408               0.05966              26.69631
   AR                   51.94597              45.66311              50.41763
   AR                   77.31284               6.02517              24.91370
   AR                  101.92736              49.96349               7.58187
   AR                   96.04081               0.66546              45.42605
   AR                  104.25930              39.40605              12.62015
   AR                   67.01424               1.02991              40.63710
   AR                   92.79245              51.88787              33.36581
   AR                   63.89544              42.66441              51.44890
   AR                   73.31376              15.26139              46.11745
   AR                   90.97468              46.48183              38.52875
   AR                   19.96633              29.97589              31.86610
   AR                   59.30905              12.23061               9.94845
   AR                   16.40756              17.17419              19.60210
   AR                   25.62149              23.50309              17.07957
   AR                   70.43046              48.04208              12.40439
   AR                   81.78909              16.62848              37.77257
   AR                  100.49692              16.76391              21.50891
   AR                    1.80841              21.33920              22.99285
   AR                   30.61780              14.80211              28.26361
   AR                   70.17957              38.32311               4.97226
   AR                    1.82148               0.05262              16.43139
   AR                   62.15954              47.75997              15.99820
   AR                   95.17020              41.11007              46.74487
   AR                   77.38412              35.16466              38.50361
   AR                   89.88813              17.59102              13.51911
   AR                   96.01759              18.66112              11.90835
   AR                   63.47204              44.29824              13.90434
   AR                  105.03024               9.80535              21.70115
   AR                   85.76746              17.46059              37.48590
   AR                   71.34183              45.93240              52.33819
   AR                    6.71406              28.40730               6.97261
   AR                   67.07901              46.34530              14.59250
   AR                   96.45850               5.15874              35.01751
   AR                   14.09942              25.56420               8.69226
   AR                   88.26558              14.37662              12.43751
   AR                   66.96681              22.04184              25.21415
   AR                   93.21273              46.20931               8.61083
