       321
            33.65097            58.69169
   AR                   72.79973              57.06976               6.95036
   AR                   78.06549               2.35629              19.05274
   AR                   92.42822              36.18296              25.89926
   AR                   73.13282              54.38347              48.65470
   AR                   84.00455               8.25645               1.44006
   AR                   93.90311               2.87309              22.49156
   AR                  105.71473               2.98051               8.12070
   AR                   11.94677              26.79333              33.27903
   AR                   97.67145              56.12498               7.66644
   AR                  100.81740              35.86749              30.34214
   AR                   22.29351               8.83860              23.30849
   AR                   91.46974              22.18369              43.99965
   AR                   76.62586              37.58060              34.16387
   AR                   67.18220              25.63150              48.92576
   AR                   72.45559              11.42516              29.79912
   AR                   94.82069              50.41731               4.07690
   AR                   63.24959               4.94541               3.09106
   AR                   75.06210              30.21499              33.45185
   AR                   89.07009              16.99280              16.83315
   AR                   99.50841              33.27174              52.11715
   AR                   52.62833              20.27619              20.25890
   AR                   78.60807              35.52898               5.92482
   AR                  105.51692              27.65533              21.32374
   AR                   95.61814              53.87219              16.34450
   AR                   81.87004              24.90590               7.00105
   AR                   91.38198              41.66920              47.83348
   AR                   65.63826              54.03041              57.18863
   AR                   20.30119              14.59392               2.57889
   AR                   28.19401              10.84438              26.37147
   AR                   69.33274              57.58209              40.75417
   AR                  107.05999              11.27672              37.14983
   AR                   60.71908              12.21801               1.38875
   AR                   94.53396              40.08933              53.22548
   AR                   91.41467              34.64784              29.38595
   AR                  106.05310               9.26599               1.78402
   AR                  106.20429              10.20376              46.96647
   AR                   95.40762               8.76044               6.55809
   AR                   92.80885              45.89010              36.14505
   AR                   84.43901              27.94072              46.17493
   AR                  105.66808              39.34933              44.78292
   AR                   32.84005              16.78181              30.23561
   AR                   76.92483              13.62923              27.55257
   AR                   32.71099              10.21333               5.60296
   AR                   74.90157              14.14186              40.15231
   AR                   79.37944              50.40119              53.42432
   AR                    6.20382              30.92697              24.81524
   AR                   77.72539              47.17141              55.92069
   AR                   86.58501              57.08623              23.55768
   AR                   65.95350              47.73418              50.30960
   AR                   97.06952              23.00434              36.60728 FRACTIONAL
   AR                   63.37954              26.83327              47.84530
   AR                  100.75725              37.50406              13.65073
   AR                  103.36288              56.02562              36.89864
   AR                   80.34682               9.07466              46.41336
   AR                    7.25111              22.97046              21.16398
   AR                   55.63196              29.83870              27.71221
   AR                   60.22161               1.29238              51.34670
   AR                  107.95648              17.04582              18.80892
   AR                   64.05624               9.59248              14.14074
   AR                    3.83291              22.74052              31.48988
   AR                   85.36397               0.05641              30.51059
   AR                  105.02185              29.48176               0.00445
   AR                   74.31677               5.23504              18.29117
   AR                   68.43908              30.47305              53.33970
   AR                   95.63806              21.49112              31.42799
   AR                   91.83296              42.54942              20.07648
   AR                   60.75414               5.10673              43.64119
   AR                   67.85417              11.83411              54.13418
   AR                   66.44964              32.32779               2.66278
   AR                   77.78350              43.82119               6.40264
   AR                   56.66122               6.89983              24.36094
   AR                   65.16321              13.89969              35.47554
   AR                   73.70112              29.49689              58.58169
   AR                   16.92614              21.47049               4.77042
   AR                   99.34539              37.20959               5.37004
   AR                   60.57761              49.49828              32.45969
   AR                   84.52898              36.34573              47.47078
   AR                   87.40272              21.78549              32.74241
   AR                   67.47714              44.83039              57.38918
   AR                   60.77001              45.24404              35.28005
   AR                   79.59462              17.09806              26.36315
   AR                   96.45728              37.61110              54.97860
   AR                   60.74449              53.68829              11.32165
   AR                   60.97996               8.30077               7.83162
   AR                   71.07448              31.84074               3.46644
   AR                   79.15026               0.13222              22.55805
   AR                   88.50586              30.23871              56.30925
   AR                   52.82426              15.45689              11.75803
   AR                   81.52181               6.46974               7.79925
   AR                   20.45788              14.54663              20.89252
   AR                   21.56370              10.03959               9.58780
   AR                   27.80791              31.55576               7.39406
   AR                   54.22342              48.24499              53.20442
   AR                   96.26214              35.33254               4.39448
   AR                   78.66897              51.89397              24.29060
   AR                   80.10373              52.14835              43.58448
   AR                  106.56074               9.90522              41.61200
   AR                  101.99551              11.85003              36.05387
   AR                   77.04820               7.55870              22.20463
   AR                   59.32309              11.20740              16.90322
   AR                   19.22460               2.85818              28.24304
   AR                   70.43826              36.28964              15.76643
   AR                   73.78060              48.04831              29.59546
   AR                   63.68048              27.53607              37.78945
   AR                   56.20467              31.38420              13.56230
   AR                   75.99427              58.39169               1.18175
   AR                  107.08295              43.84144               6.71962
   AR                   89.94481               2.27267              38.25376
   AR                   69.75900              35.85165               1.68641
   AR                   50.78071              36.21109              30.45133
   AR                   60.48156               3.88014              12.72323
   AR                   68.71045              52.14613              38.81893
   AR                   70.75693              53.96823               3.46837
   AR                   85.26880              33.03269               1.21623
   AR                   51.51449              31.66787              35.62789
   AR                   96.09559              10.51665              19.63045
   AR                   91.21752              55.10244              18.79542
   AR                   63.95823              27.24991              55.46940
   AR                   80.89585              41.76381               7.95658
   AR                  103.21952               9.25138               9.80184
   AR                   61.85220              12.58570              31.92410
   AR                   97.66827              41.79224              51.77289
   AR                   92.67680              27.20110               2.85470
   AR                   17.32437              12.96940               2.59455
   AR                   10.74503               6.22172              26.88203
   AR                   50.74666              36.50495              40.42784
   AR                   55.43777              15.39333              15.12730
   AR                  100.41795              32.31606              47.43720
   AR                   62.72855               9.63887              36.97519
   AR                   88.62331              40.66739              12.71104
   AR                   92.53640              19.39182              19.30377
   AR                   71.06252              47.98492              32.13466
   AR                   90.74349               8.33281              58.50581
   AR                  108.02430              10.85067              24.37513
   AR                   75.61212              16.55146              23.97701
   AR                   74.96179              22.71751              22.77831
   AR                   73.75188              34.98284               0.82412
   AR                   68.08400              19.78537              19.64003
   AR                   63.63594              29.79862              30.34242
   AR                   88.54275              49.85908              18.92000
   AR                   77.54088              14.02186              43.77844
   AR                   13.55901              12.95135               5.85067
   AR                   73.18759              11.06255               4.18996
   AR                   76.59963              47.33145              31.47215
   AR                  105.76737              19.29905              26.40910
   AR                   15.80841              23.91092              13.56423
   AR                   12.08041               7.59213              14.93322
   AR                   21.04057               8.12971              12.09718
   AR                   94.20821               1.73849              52.80683
   AR                   54.24070              21.02835              23.78362
   AR                   75.11157               7.61838              28.77385
   AR                   55.83106              34.93951              24.35496
   AR                   69.66472              55.66765              58.05869
   AR                   90.34598              54.43007              12.07176
   AR                   94.54520              40.08406              13.40730
   AR                  107.15753              33.56105              29.51377
   AR                   77.22491              43.08459              28.50498
   AR                   78.75232              52.34979              28.19533
   AR                   17.65265              26.62643               5.75973
   AR                   65.62825               7.09710               5.03363
   AR                   69.73176              28.20759              48.64853
   AR                   62.79908              16.41312              10.20021
   AR                   98.47560              41.13436              56.16056
   AR                   55.52626              26.53691              18.28529
   AR                   82.93596              24.49953              26.76608
   AR                   52.18385              31.76259              56.01112
   AR                  104.11197              50.42517              35.24315
   AR                   61.81377              52.61528              52.60382
   AR                   75.46707              31.67761              55.45309
   AR                   94.98397              27.39242               7.97422
   AR                   91.14262              43.60219               2.59272
   AR                   86.75018              15.50269              28.48880
   AR                    7.56032              27.98676              31.38533
   AR                   68.40774              26.95889               4.13696
   AR                   74.18384              37.97499              11.53581
   AR                   62.05075              24.16102              49.89848
   AR                   91.26553              41.78786              57.76917
   AR                   93.42803              13.68783              50.90466
   AR                   71.28986              18.48502              42.66174
   AR                   95.20760              31.00132              26.64398
   AR                   98.50567              17.64133              29.22888
   AR                   80.73351               7.95137              34.24493
   AR                   87.32739              31.01504               3.85144
   AR                   58.64078              36.99870              53.20620
   AR                   76.89131              45.91571              26.52882
   AR                   52.60274              19.54513              33.32990
   AR                   62.15495              22.90295              17.93215
   AR                   51.62579               1.85965              57.68156
   AR                   52.50435              39.05670              43.78770
   AR                  101.97031              31.31254              11.52895
   AR                  106.17221              11.75594              56.77661
   AR                   79.13739              52.94399              37.13585
   AR                   79.64523              19.51531              32.17286
   AR                   13.26390               6.44285              18.26396
   AR                   52.25386              36.75545              36.81893
   AR                   26.25024              22.09105              20.07150
   AR                   52.83198              26.34794               1.01585
   AR                   92.19716               1.15002               7.80920
   AR                   12.53815              26.90619              13.46702
   AR                   94.31963              34.40126              15.13576
   AR                   29.20792              23.07829              13.59300
   AR                   58.24108              55.69303              51.27336
   AR                   50.74534              21.45221               2.66188
   AR                   84.73116              28.48559              41.61807
   AR                   56.75044              49.07876               5.52544
   AR                    1.65258               9.06791              17.99175
   AR                   77.04086              47.40557              36.24509
   AR                   90.78801              45.71292              30.58203
   AR                   83.48153              53.95215              54.95403
   AR                   50.63213              15.66990              25.31006
   AR                  100.87213               4.48506              56.13341
   AR                   98.53505              15.13920              50.64868
   AR                   74.08380              53.04852              27.36205
   AR                   14.95626              17.76634              18.52155
   AR                   79.83679              33.81410              44.88200
   AR                  104.92528              24.23409              50.71177
   AR                   69.34821               8.60476              42.53963
   AR                  103.31844              12.03165              45.08776
   AR                   55.65163              40.46859               7.50957
   AR                   69.43351              14.09974              28.99209
   AR                   21.15489              27.96736              17.17452
   AR                   81.00359              20.40556               3.94648
   AR                   97.46760              11.91439              36.05298
   AR                   56.01760              31.76980              35.49122
   AR                   85.52302              31.63457              33.26781
   AR                   82.10914              17.61383              33.63002
   AR                  105.32770               7.56926              19.05086
   AR                   77.13356              17.70851              52.31294
   AR                  101.01614              43.79600               9.19200
   AR                   95.73558              31.69348               3.80406
   AR                   72.46672              55.93128              10.47138
   AR                   80.90306              18.29697              37.37182
   AR                    1.35290              17.60561               2.65969
   AR                   78.64290              26.02357              58.54771
   AR                   98.87302              49.70118              21.72511
   AR                   56.93229              25.90093              38.46173
   AR                   61.66051              41.19636              46.46921
   AR                   54.69178               3.55212              58.32313
   AR                  105.22779              48.11308              32.01123
   AR                   98.95336              30.65803              16.07825
   AR                   82.54575              39.28985              14.81073
   AR                   11.45298              17.88944              23.82199
   AR                   59.81262              52.97149              29.35505
   AR                   94.82555              38.56010               5.06115
   AR                   70.36157              43.38845              23.97958
   AR                   56.03813              16.40327              44.95495
   AR                   66.91200              19.81480              46.34933
   AR                  101.12794               2.53284              16.24876
   AR                  104.73315               6.22918              48.75766
   AR                   67.09653              35.34243              50.73562
   AR                   64.40751              53.24948              37.67748
   AR                   55.87253              25.72677              55.52264
   AR                   90.46940              13.40530              49.33637
   AR                   17.34038               4.07443              15.96801
   AR                  104.25719              34.40841              48.51675
   AR                  109.08013              33.02986              51.68293
   AR                   70.98186              21.40446              14.34852
   AR                  108.96443              25.19102              52.65562
   AR                   52.82126              19.81046              13.16166
   AR                  105.55890              40.48287              28.23586
   AR                   59.41831              24.76484              45.81571
   AR                  107.05074              28.48196              51.67720
   AR                   58.80687               2.10567               1.70981
   AR                   60.08686               2.99808              27.22675
   AR                   53.49522              28.00122              33.78562
   AR                   90.29583               9.19753               6.65652
   AR                   93.75077              57.24601              15.86593
   AR                   61.23261              32.85968              40.70591
   AR                  101.24129              41.07693              58.08217
   AR                   72.68585              43.46236              39.68224
   AR                   99.40098              38.49100              52.40525
   AR                   87.65916              22.45615              28.92603
   AR                  104.30780              13.99253              35.10822
   AR                    6.91199              22.52351              26.87820
   AR                   73.33190              13.37305              35.05158
   AR                   64.68645               4.29298              29.07776
   AR                   70.13887              21.71131              17.54037
   AR                   87.34795               0.53785              49.58547
   AR                   62.46726              40.11636               4.93646
   AR                   86.68130              27.49703              58.53230
   AR                   70.96714              56.91569              24.12120
   AR                  100.97817              23.36729               3.64687
   AR                   60.05238              38.42996              43.21971
   AR                    8.71621              21.27716               8.96847
   AR                    1.58281              14.29169              27.75748
   AR                   57.64123              21.82624              23.12454
   AR                   54.32846              44.58797              20.77639
   AR                   54.86054              25.54648              48.31404
   AR                  102.85487               7.35966               6.69574
   AR                   14.93188              11.24900              20.95548
   AR                    3.03683              25.70710               0.34134
   AR                   73.15690              56.73924              28.97355
   AR                   88.84215              49.84104              43.48489
   AR                   88.04856              40.84619              16.71467
   AR                   60.34973              53.19106              24.94831
   AR                   92.24274              23.25959              51.31242
   AR                   64.62318              39.28635               8.83288
   AR                   54.55924              39.87790              38.91206
   AR                   57.84148               0.65431              29.65615
   AR                   71.43704              42.66554              49.63679
   AR                   63.77477              46.72387              26.33400
   AR                   82.80232              46.34460              56.57178
   AR                    2.06441              13.08688              23.40451
   AR                   54.30191              51.56601               2.63675
   AR                   73.54451              58.40662               4.18584
   AR                   56.21448              46.83973              44.22275
   AR                   98.04161               4.03747              47.12191
   AR                  100.25527               4.26669              44.43737
   AR                   99.80188              25.34879              48.04898
   AR                   65.87064               9.85784              41.10526
   AR                   73.15900              42.80595               0.40701
   AR                   84.06941              20.70499              26.21559
   AR                   84.45765              16.10062              13.34346
   AR                   83.41768              31.95643              39.75546
   AR                   82.64379               2.56193              56.94856
   AR                   53.69045              17.71764              49.75506
   AR                   95.02622              46.75971              40.05070
   AR                   88.34638              55.62230              35.06758
   AR                  106.62722              39.07817              53.69211
   AR                   56.51420              36.14414              48.44863
   AR                   95.79263              13.72959              54.05850
