       301
            33.08071            62.88625
   AR                   10.32355              14.75401              16.79154
   AR                   29.87401              19.89721              33.06940
   AR                   83.20557              47.69276              21.96456
   AR                  100.05211              56.21172              33.14600
   AR                   91.31795              43.15996              19.12939
   AR                   76.58703               2.33708              14.93556
   AR                   69.82137               7.52093              48.61081
   AR                  105.71598               5.85555              42.89815
   AR                  108.03482              33.07566               1.06404
   AR                   58.02970              13.99360              16.69189
   AR                   55.75689               2.69640              54.35466
   AR                   92.52859              33.96246              44.21748
   AR                   72.58117              33.19092              19.30802
   AR                  101.08034              53.04708              11.77412
   AR                   99.34286               3.35687              24.79575
   AR                   79.22971              26.82030              55.73014
   AR                  107.00250              23.28336              51.76630
   AR                   68.84972              26.08039              45.37523
   AR                  111.86531              62.16865               4.58782
   AR                  103.18090               1.87059              37.58107
   AR                   58.75813              33.13387              58.83999
   AR                   67.27384              39.99825              35.34799
   AR                    1.00974              27.99973               4.52249
   AR                  102.60514              57.56652               3.51654
   AR                   27.67917              25.80641              20.27990
   AR                   53.16530              30.57739              18.86041
   AR                   55.42134              34.38993              54.00815
   AR                   51.64686              13.18960              29.77648
   AR                   54.71423              22.04531              25.10963
   AR                   75.91941              19.57094               3.90004
   AR                   19.74609              26.02127              23.10967
   AR                  104.67203              44.59876              27.76209
   AR                  109.03391              53.05301              61.23829
   AR                   68.46553              46.65749              37.94433
   AR                   87.18378              10.05950               3.41854
   AR                  105.44960              26.12423              13.10907
   AR                   86.64037               2.33814               6.44801
   AR                   97.39154              54.62219              62.48095
   AR                  105.62748              12.72562              27.69275
   AR                   83.00142              36.32163              15.60504
   AR                   79.90972              53.54658              62.77026
   AR                   73.03252              39.38984              27.53913
   AR                   53.43706              34.25178              17.73660
   AR                  103.56796              34.36880              48.32278
   AR                   90.97807              18.06094              45.77970
   AR                   56.16909              37.72702              51.51304
   AR                   86.37700              45.94821              28.92706
   AR                   77.99308              53.19008              51.12220
   AR                  105.20854              57.53220              29.95850
   AR                  100.05509              26.81768              31.97896
   AR                   62.27443              10.76248               3.96663
   AR                   77.68189              27.63924              28.06162
   AR                   81.62151              12.33056              11.20641
   AR                    0.26452              31.03752               1.28923
   AR                    0.29638               6.25197              28.84869
   AR                   86.30898               5.64860              30.59121
   AR                  105.99159              59.11348              37.24718
   AR                   66.70498              17.74149              11.57375
   AR                   89.04084              47.57684              52.89677
   AR                   78.66226               3.76003              25.92429
   AR                    5.72909              20.24985               4.56645
   AR                   69.84050               6.80777               0.36819
   AR                   61.51376               7.98020              44.31988
   AR                   89.16646              61.26058              59.86921
   AR                  110.39276              11.36412              16.54554
   AR                   80.46137              23.44225              33.12913
   AR                  100.06703               8.73402              52.21337
   AR                   76.73198              25.21653              54.60528
   AR                   76.67933              47.73577              44.51029
   AR                  109.32783               2.76265              36.72758
   AR                    6.94139              10.85993              29.72203
   AR                   66.22330               3.10158              24.54870
   AR                   51.31839              20.67653              35.24723
   AR                   91.27952              13.74295              24.33461
   AR                  101.66433               6.34207              55.56344
   AR                  100.09848              47.05551              42.74965
   AR                   83.72909              14.95445              28.64218
   AR                  100.72333               9.51511              19.09632
   AR                   10.75956              32.88184              18.91570
   AR                   64.75207               9.02789              27.62533
   AR                   52.10135              22.15334              13.48195
   AR                   81.51319              32.93944              38.46800
   AR                  108.37562               3.83007              40.80163
   AR                   89.85843              23.93604              23.06939
   AR                   64.71584              39.64489               0.01947
   AR                   70.50933              58.75549              58.95736
   AR                   90.72140              60.94455               3.45340
   AR                   58.72946              29.70641              33.85909
   AR                   83.90489               7.54004              10.02048
   AR                  109.30047              50.99692              51.31741
   AR                   62.54181               1.76291              40.59067
   AR                   10.71154              22.17718              30.88048
   AR                   83.84358              54.74554              44.68045
   AR                   79.01404              36.07124               2.54740
   AR                   24.26906              13.55281               3.48765
   AR                   68.11486              38.93428              40.48718
   AR                   81.11442              47.31796              48.12387
   AR                  101.08510              12.84687              15.45698
   AR                  106.81478              33.94095              22.47018
   AR                    7.50116              29.83896              13.04362
   AR                   13.44954              31.35842               2.68649
   AR                   74.26366              61.29244              37.98112
   AR                   18.13676              14.06175               6.35448
   AR                  110.32611              17.12013              21.69084
   AR                   68.82025              13.79048              27.40926
   AR                   58.86642              19.15273              13.16445
   AR                   27.56218              15.95596               7.40623
   AR                   70.51315               7.32715              42.52130
   AR                   87.71381               8.41174              18.27696
   AR                  105.62181              37.07257              32.93184
   AR                   64.83619               4.70631               6.54879
   AR                   74.84050               1.66507              49.00343
   AR                  101.04180              50.18526              15.68376
   AR                   95.43783              13.07649              10.23645
   AR                   17.73173              27.32672              11.01256
   AR                  101.66749              50.80014              18.73963
   AR                   83.22216              31.55000              52.74433
   AR                   86.61173              31.48720              36.23205
   AR                  111.50280              48.96509              17.36639
   AR                   84.71043              21.98406              40.52434
   AR                   50.34593              42.88119              52.40912
   AR                   63.51965              43.34091              17.73775
   AR                   56.92416              23.59852              48.94720
   AR                   90.62179              19.86275              25.08038
   AR                  108.07821              37.23474               0.18374
   AR                   63.37203              54.88749              46.94386
   AR                   83.18860              38.13016              45.54134
   AR                   55.11651              61.35574              10.67924
   AR                   97.08354              10.81741              55.72629
   AR                   57.84342              17.06588              50.83217
   AR                   64.07493              32.54827              57.45854
   AR                   90.24391              37.49783              13.36027
   AR                   10.94140              23.56836               3.30568
   AR                  112.16707              14.49481               0.36963
   AR                  100.31776               3.73063              39.97406
   AR                   69.11443               1.28952               5.95837
   AR                   70.61426               3.72973              14.23456
   AR                   64.78817              36.44883              60.88095
   AR                  108.91961              54.01375              14.87686
   AR                   71.55711              17.20227              46.19220
   AR                   79.43766              41.17554              27.30564
   AR                   80.22736              19.95058              29.78036
   AR                   64.48805              51.66547              46.30206
   AR                   12.23521              22.62157              10.75297
   AR                   81.98517              57.21211              17.79369
   AR                  107.02428               3.47198              61.77898
   AR                   53.08751              23.54106              38.52820
   AR                   88.00651              50.38611              46.70455
   AR                   77.61995              43.08845               8.27166
   AR                  103.22196              54.71071              53.30817
   AR                  104.49785              25.87918               6.15528
   AR                   95.80207              59.44478              60.94406
   AR                   59.02990              10.09970              28.07130
   AR                  109.35705               2.72846              23.72294
   AR                   81.80565              20.89225              15.73071
   AR                   83.55163              36.54083              32.85057
   AR                   54.45807              62.59004              51.62126
   AR                   70.18488              39.95285              13.89722
   AR                   17.79183               4.94673               2.26699
   AR                   77.77521              42.06036              19.54472
   AR                   61.06515              47.68272              29.05375
   AR                   29.37802               6.61427              21.44297
   AR                   25.57004              18.93021              31.65422
   AR                   92.57057              32.64301              60.12983
   AR                  111.55117              17.62262              35.63669
   AR                   96.18289               6.54270              47.46214
   AR                   83.00556              28.03349              43.33003
   AR                   68.91363               9.45526              35.58954
   AR                   95.56148              47.67861              59.78932
   AR                  109.69692               7.03756              46.30866
   AR                   88.09950              58.52361              47.49050
   AR                   82.98425              15.53019              13.49772
   AR                   91.68003              50.04480              62.26850
   AR                   75.52961              34.06555              29.21439
   AR                  106.10968              41.83416              61.47695
   AR                   95.53120               8.00866              42.60014
   AR                   76.59790              49.32369               2.53900
   AR                   70.02121              32.21154              37.47937
   AR                   82.45041              12.99502              21.66050
   AR                   50.37578              49.16550              35.96526
   AR                   77.23736               2.13812               9.69833
   AR                   54.10401              50.98668              55.32135
   AR                   54.68544              50.10353              49.68258
   AR                   58.06876               4.97409              12.78669
   AR                   98.34366              23.32486              17.69524
   AR                   21.55630               7.12166              27.40111
   AR                   75.87413               3.11034              30.90650
   AR                   30.72649              16.67961              10.29670
   AR                   64.42064              17.70324              16.30849
   AR                   21.84936              15.90136              10.53763 FRACTIONAL
   AR                   77.39236              43.33584              40.05740
   AR                   90.54454              37.05021              40.52785
   AR                   75.10472              38.79659              41.56418
   AR                   62.51422              50.55218              15.47852
   AR                    9.48334               2.35530              15.84258
   AR                   50.94626              57.07478              29.71438
   AR                   91.45491               0.83508              29.64990
   AR                   92.21927               0.27999              45.14104
   AR                   92.97638              42.66532              60.97823
   AR                   68.77274              25.69391              36.63932
   AR                   52.77112              36.81528              51.34571
   AR                   73.55731              12.23115               8.58567
   AR                   52.14808              23.75170              33.00253
   AR                  101.94851              30.20119              29.06629
   AR                   99.02763              42.22084              52.75924
   AR                   97.46832              51.30409              62.25172
   AR                   60.79141              52.61798              11.81724
   AR                    5.79216               3.67735              14.54690
   AR                   87.32974              14.59515              42.00658
   AR                   51.52779               8.01241               6.28013
   AR                   66.10312               2.72719              32.15570
   AR                   30.20952              12.55610               6.33675
   AR                    7.66301               8.85041              32.51268
   AR                   84.24443              19.61246               5.23582
   AR                   92.42919              16.52804              58.10566
   AR                   57.82644              60.51722               5.91686
   AR                   88.28015              59.38701              22.31049
   AR                   26.95392               1.75248              22.17041
   AR                    2.50112               8.10955               7.00877
   AR                  101.35670               7.98397              21.48433
   AR                   79.17484              23.49820              38.82339
   AR                   76.79749               6.27851              32.92072
   AR                  103.94979              61.27785              39.74233
   AR                   14.43577              11.90163              29.82072
   AR                   82.78529              52.29872               6.40070
   AR                   95.24400               2.14747              45.17022
   AR                  103.59098               6.27667               4.71709
   AR                  104.53973              60.69161              15.38464
   AR                   29.48499              20.05583               9.61055
   AR                   92.87431              16.38290              20.02172
   AR                   85.98080              12.45032              39.76211
   AR                   54.87677              39.23384              47.94931
   AR                  107.42484              50.99811              27.17063
   AR                  111.86616              40.28784              25.89861
   AR                   84.75279              13.27649              17.82928
   AR                   99.94680               2.79769              35.48018
   AR                  101.47089              61.92182              36.15942
   AR                   60.12517              50.15728              30.88953
   AR                   72.03406              55.42461              58.60659
   AR                   69.08453              62.15512              49.39155
   AR                   50.50479              39.70545               3.66004
   AR                  101.26553              26.99080              20.15717
   AR                   92.61189              43.81416              29.12964
   AR                   85.94005              52.47778              35.33271
   AR                   92.92739              51.21558              57.21443
   AR                  102.05360              40.06112              12.01933
   AR                  111.49665              57.98329              46.46841
   AR                   56.65915              46.00467               8.88356
   AR                   67.53892              49.24497               2.64233
   AR                   92.90123              41.15841              11.99454
   AR                   85.95098              61.40224              19.18902
   AR                   52.58194              15.53338              51.06077
   AR                   62.28095              55.23307              29.15271
   AR                  103.11499              19.17963              12.81186
   AR                  106.12030              22.65590              27.78671
   AR                   90.59091              32.82811              29.28320
   AR                   50.78871              12.10680              36.06083
   AR                  109.76858              16.04461              59.41184
   AR                   53.44250              21.01691              53.28647
   AR                   65.47898              53.22885              51.39486
   AR                    2.51899               4.79890               4.62784
   AR                   69.78784              43.34052              37.75815
   AR                  102.28728              27.71819              10.30420
   AR                   78.24960              35.90953              37.03491
   AR                   79.60067              33.89303              59.18923
   AR                    6.86168              26.46369              12.65029
   AR                   91.27105              55.27810              44.82908
   AR                   56.09458              32.55639              46.56223
   AR                   53.17975              42.00201              49.73513
   AR                   88.16457              33.92039              35.01315
   AR                   52.62016              40.63671              25.51600
   AR                    5.92913              21.83287              11.12230
   AR                   93.23676               5.67912              21.30153
   AR                   60.94587              33.07898              33.37824
   AR                   21.19505              15.63552               7.14924
   AR                   80.89231               2.83230              41.96906
   AR                   80.33368              40.77673              17.67131
   AR                   23.33957              21.95160              11.98686
   AR                   69.56810              10.66657              12.60769
   AR                   91.59317              12.35717              28.79199
   AR                    1.51192              18.24716              15.04216
   AR                   60.55623              47.79753              33.53895
   AR                   68.43843               3.33585              35.76251
   AR                   72.29313              41.87244              46.93980
   AR                   67.99618              33.87787              60.42281
   AR                   56.53197              11.34869              25.34281
   AR                  111.89390               6.91815              53.62948
   AR                   20.30640              21.85123               9.62546
   AR                   58.36901              42.14922              15.58190
   AR                   83.71781              26.69170               9.85772
   AR                   77.83645              10.90587              43.46691
   AR                   74.75403              44.45911              47.68689
   AR                   97.26746              59.84383              42.27743
   AR                  105.20972              46.32137              32.88950
   AR                   26.13819               8.66357              26.91583
   AR                   88.50262              15.18191              61.55598
   AR                   80.98987              51.36703              39.46907
   AR                   14.68764              19.25805              26.43275
   AR                   12.49490              16.01853              12.20320
   AR                   84.49793              34.49021              26.30403
   AR                   91.16932              47.49600               6.46518
