       206
            33.57346            71.58249
   AR                    4.40833              32.94962              21.64694
   AR                   52.82505              55.07708              30.20032
   AR                  100.67089              29.96400              31.72752
   AR                   82.03825              52.92772               9.69376
   AR                   96.94652              11.47761              24.17301
   AR                   94.28072              50.81869              10.06696
   AR                   58.03966              36.54798              44.11443
   AR                  106.38173              24.33001               6.76253
   AR                   56.35470               6.44560              53.96216
   AR                  120.45767              41.06111              19.79433
   AR                   93.93527               1.59357              19.36594
   AR                   58.68509              66.31771              45.14217
   AR                   51.98766               3.30851              63.48918
   AR                    3.17530              20.46754               7.48260
   AR                   99.33391              50.59737              64.36706
   AR                   51.03477              42.70419              68.47256
   AR                  121.64976              68.32764              15.19729
   AR                   64.67931              42.73016              20.07294
   AR                   84.56825              23.25451               2.32203
   AR                   84.25597               8.18437              42.65195
   AR                   87.17997               0.86974              48.96576
   AR                   96.80365              69.70042              62.45423
   AR                  114.21228               5.33138              44.34839
   AR                  113.78480              50.28019              32.82163
   AR                  116.73824              22.96612               3.49514
   AR                   62.86190              31.83434              30.91388
   AR                   84.31383              52.30516              29.88097
   AR                   54.96478              59.47038              18.75757
   AR                  114.83711               0.34075              43.35407
   AR                   63.08381              70.70987              17.80704
   AR                   94.02907              43.61132               8.13557
   AR                  102.32421              37.84160              32.63530
   AR                  105.99051              68.16178              36.59273
   AR                   67.38072              12.71116              45.87133
   AR                   70.84178              48.90208              62.34033
   AR                   89.76422               2.69544              68.66242
   AR                   83.55762              67.37055              42.24184
   AR                   63.78927               3.35069              29.95664
   AR                  118.36941              60.25770              12.10235
   AR                  120.55883               6.72993              37.35562
   AR                   68.57917               1.04667              46.62820
   AR                  109.61505              58.64377              49.46804
   AR                   81.65307              28.45267               1.74958
   AR                  120.97957              55.43752              10.26262
   AR                   95.16006              28.21080              23.96190
   AR                   79.07830              61.83948              19.74110
   AR                   94.94048              28.37926              29.16335
   AR                   98.83541              29.77635              16.40405
   AR                   59.99646              53.21136              13.87047
   AR                  104.47418              19.60880              14.40215
   AR                   60.60646               8.88018              20.63754
   AR                   70.17207              20.21687              60.04944
   AR                  107.25535               9.62249              11.92370
   AR                   86.47928              38.25340              32.47668
   AR                   53.62572               0.74326               7.04208
   AR                   76.43363              65.57721               2.86347
   AR                   92.79151               0.65680              62.78314
   AR                  105.44531              45.30069              44.43931
   AR                   55.64426              70.22941              20.26347
   AR                  103.05904              70.14137              13.61809
   AR                   62.98809              58.25803              44.54684
   AR                   18.77467              11.41861              26.38984
   AR                   54.60159               7.26368               6.12560
   AR                  105.41999              38.65389              38.68865
   AR                  112.13445              18.22379              15.50686
   AR                   62.84233              47.98784              67.86456
   AR                    2.98247              30.17203              29.57292
   AR                   83.94725              29.44805              34.96205
   AR                  102.08860              44.71099              35.36650
   AR                  118.85225               2.85509               1.97158
   AR                   94.57630               8.31649              29.28890
   AR                    9.36323              16.61618              31.12152
   AR                   33.26848               5.80743              13.98059
   AR                  110.29454              35.33365              31.57231
   AR                   75.15227               6.89017              13.11380
   AR                   51.01418               6.67739              61.12347
   AR                   75.72412              48.77237              65.40406
   AR                  101.05110              46.12666               7.82439
   AR                   80.87708              11.18493              15.94574
   AR                  117.36768              57.48631              25.18784
   AR                  113.72331              19.53197              11.62777
   AR                   25.74296               7.76354              30.60118
   AR                   96.48000              22.07414              20.06171
   AR                   79.44946              42.71260              52.32828
   AR                   90.52779              59.26180              42.96491
   AR                   73.18855              41.36392               0.12027
   AR                   81.81186              71.03677              49.14258
   AR                   75.61936              63.50819              24.13781
   AR                   95.71915              67.52682              65.29235
   AR                   51.56316              38.01155               5.48165
   AR                   54.70957              30.33773              63.38295
   AR                  120.82153              50.73969               1.50139
   AR                  105.33700              30.78914              21.73501
   AR                   91.81548              39.74356              35.54453
   AR                  105.83758              69.81297              16.64838
   AR                   91.29510              53.89617              47.08621
   AR                  103.43561              59.73938              36.00659
   AR                   66.59197              43.92956              15.38370
   AR                   56.28114              55.97511              60.46099 FRACTIONAL
   AR                   59.78485              33.05718              60.99202
   AR                   54.31760              39.95256              61.17881
   AR                   17.03829              20.14295              20.59914
   AR                   82.87423              26.48795               7.92002
   AR                   73.35237               5.37461              60.97724
   AR                  121.48990              36.01805              57.00241
   AR                  108.84032              40.53734              64.10124
   AR                   68.83361              17.14272              31.80205
   AR                   59.92402              42.11196               3.17607
   AR                   77.00905              11.36644              61.86229
   AR                   50.61991              52.22234              33.36112
   AR                  118.53693              47.05666              47.68621
   AR                  109.49418              61.63587              10.60906
   AR                  100.59695              50.22621              53.84716
   AR                  104.72252               1.64491              14.41103
   AR                   58.61333              54.50818              64.47488
   AR                   82.35150              33.83110              63.91637
   AR                   93.28685              60.24157              39.10480
   AR                  104.51214              61.23066              44.81146
   AR                   93.23269              31.84537              23.48331
   AR                   64.62080              34.57125              11.66902
   AR                  119.02867              59.01408              51.32804
   AR                  113.56323              29.16153              70.32114
   AR                  103.86863              35.77008              65.06592
   AR                  112.76220               3.67489              30.68959
   AR                   87.45366              70.13835              52.77066
   AR                    7.81730               7.89072              30.22562
   AR                  111.71211              22.41415              43.68303
   AR                   67.26682              55.39748              33.87912
   AR                   30.32206              31.96915              26.57867
   AR                   58.10624              11.54399              18.13401
   AR                   19.73111              27.08289              31.86906
   AR                  111.92512              42.17020              63.71983
   AR                   90.99424              24.67648              54.75944
   AR                  101.32678              10.30391              30.82026
   AR                   84.25512               0.86134              56.18056
   AR                   76.64795              65.13380              16.53496
   AR                   95.23501              16.63268              39.96305
   AR                   24.58964              11.92619               9.43765
   AR                   59.72770              26.15736              67.30115
   AR                   89.13120              56.41564              57.83334
   AR                  117.69735               7.41428              68.96612
   AR                  108.34675              45.68964              68.90535
   AR                   76.03236              29.51556              21.01770
   AR                  100.26178              68.18327              11.36878
   AR                   79.32803              55.32209              29.95669
   AR                   80.22443              30.84987               8.21002
   AR                   82.34858               2.74036              19.34430
   AR                  119.57067              39.89861              41.78804
   AR                   73.88564               3.95927              28.00963
   AR                   92.46474              39.59670               5.21782
   AR                   90.31887              34.56339              33.31096
   AR                   64.58551              71.12734              63.25485
   AR                   55.40126              36.74762              12.84183
   AR                  107.00571               4.30641               5.49695
   AR                  100.10279               4.24588              36.50330
   AR                  101.70451              19.54943              49.55707
   AR                  113.37337              30.49797              39.41282
   AR                   68.16945              62.57889              19.28723
   AR                   14.86003              21.05900              23.46951
   AR                  111.15772              21.73381              65.63504
   AR                  108.86168               3.97016              30.18117
   AR                   30.24651               6.71562               1.74273
   AR                   81.71853              38.93212              15.76995
   AR                  102.17914              51.63678              23.44035
   AR                   58.99987              14.66813              29.53528
   AR                   17.99558               6.65968               9.28137
   AR                   88.19216              44.88214              32.09854
   AR                   59.15581              23.06628              21.86864
   AR                  112.38488              38.89306              10.77240
   AR                  116.84028              36.82673               7.17651
   AR                   87.85124              58.67360              39.66339
   AR                   77.97301               6.91018              25.86133
   AR                   97.55175              23.94755              47.60627
   AR                   22.62896               1.45161               3.01919
   AR                   59.47104              18.46413              14.45310
   AR                   83.61101              70.26955              65.62495
   AR                  102.27790              45.37947              41.24229
   AR                   62.45373              40.13612              69.03962
   AR                   50.81209              63.87877              64.11570
   AR                  101.18762              58.96557              48.48668
   AR                    6.10546              28.40332              29.95793
   AR                   59.81417              59.39181              47.57573
   AR                   77.67733              52.22228              40.37495
   AR                   56.64081               6.80727              16.06165
   AR                   93.77958              33.57007              19.47854
   AR                  109.92242              60.90173               7.35979
   AR                   15.33742               6.78668              33.33913
   AR                  120.19203              46.24889              58.30969
   AR                   56.82140              61.60677              41.95879
   AR                   66.60232              39.55964              23.62872
   AR                   71.10750               9.77600              57.18255
   AR                   78.93797              44.34954              33.46665
   AR                   20.04704              24.46578               8.29002
   AR                   62.87853              31.07473              63.95638
   AR                   79.34091              11.67340              33.39270
   AR                  100.48314               7.04444               1.72675
   AR                   81.81321              19.19866              61.58026
   AR                  103.88105              67.11444              62.37793
   AR                   29.68520               9.10803              11.62399
   AR                   55.77081              37.50133              30.75364
   AR                  100.32470               7.37068              23.75298
   AR                   85.38026              71.18536              20.99725
   AR                   58.97254              27.86172              60.91051
   AR                  114.38499              60.93791              62.46781
   AR                  102.75663               8.95823              70.52363
   AR                  100.35659              65.36396              15.83399
