       391
            34.87896            52.77388
   AR                   86.60643               9.43344              51.37011
   AR                   54.36849              44.26469              32.36981
   AR                   96.78812              36.65009              46.24589
   AR                   69.10181              51.98230              49.92580
   AR                   60.91827              26.46570              45.21322
   AR                   20.78354               4.17819              27.12195
   AR                   53.68824              16.43436               0.00617
   AR                   85.16814              17.04912              26.19976
   AR                   14.83048              20.86946               6.16387
   AR                   73.06629              44.10864               5.68916
   AR                   80.76064               7.47492              26.89444
   AR                   94.45659               9.73084              25.66623
   AR                   91.76724              49.98153              13.73541
   AR                   58.95003              43.02458              29.02989
   AR                   19.23608               5.56200               8.85670
   AR                   93.23074              49.51916               9.77722
   AR                   84.06867              21.84148              15.02729
   AR                   89.91873               9.60987               1.90340
   AR                   96.42283              33.00770              44.86985
   AR                   13.48214              22.72563               2.35045
   AR                   28.11860              13.13521               2.93066
   AR                   69.20325              44.62767              41.19872
   AR                   99.85967              28.03697              44.26258
   AR                    0.59116              25.08165              12.25137
   AR                   95.07245              43.78766              45.58100
   AR                   91.34878              16.87584               8.18969
   AR                   69.11163              40.12176              50.50914
   AR                   71.30155              30.73187              26.28728
   AR                    2.11113              30.51643              12.87178
   AR                   94.65059              43.67601              30.36244
   AR                   99.15749               8.32426              14.49421
   AR                   62.60636              17.26532              10.40146
   AR                   79.03323              33.89301              48.69037
   AR                   86.59252               1.76807              20.50418
   AR                   85.97886              25.72600              41.83028
   AR                   83.22221              19.15620               2.27483
   AR                   70.73345              46.31607              31.33043
   AR                   75.84710              11.31482              49.07969
   AR                   99.22120              11.89456               9.49834
   AR                   96.57193              18.06442              23.91380
   AR                   79.02663              24.98122              40.55516
   AR                   58.97277               7.82607              23.36506
   AR                   95.58164              13.56355               0.94680
   AR                   80.50180              26.87851              30.63070
   AR                    9.45755              21.77392              34.13032
   AR                   79.79480              45.19905              19.67132
   AR                   53.56777              35.66788               2.13513
   AR                   56.48555              16.98834               5.64657
   AR                   66.22211              23.04624              23.50055
   AR                  104.48558              49.89085              32.30979
   AR                   92.70830              49.37654              24.28256
   AR                   21.50679              26.00261              32.95742
   AR                   73.37045              34.94871              22.95363
   AR                   17.31340              13.29164              15.67462
   AR                   73.13921              12.80800              40.66324
   AR                   62.71892              48.15641              51.91333
   AR                   99.38911              34.11614               6.52944
   AR                   58.02173              24.31173              11.20379
   AR                   66.65967              41.26273               2.17292
   AR                   15.54966              12.93587               2.88460
   AR                   59.00125              40.49964               8.78008
   AR                   93.38334              46.42540              48.24162
   AR                   93.29873               3.57175              34.42564
   AR                   94.91858               3.55189              38.03044
   AR                   57.04610              14.82350              41.35493
   AR                   78.38347              15.27389               3.69667
   AR                   71.43429               5.71876               5.50149
   AR                   52.54507               9.25693              34.45302
   AR                   74.07325              38.65576               7.47431
   AR                   26.48451               7.37020              28.55150
   AR                   60.09888              15.98078              14.99367
   AR                  104.21427              36.87038              38.54180
   AR                    5.44271               1.61834              15.41340
   AR                   84.02869              34.51388              51.13301
   AR                   27.41336               5.63579              11.17428
   AR                   15.59859              32.16710               1.54474
   AR                   64.62409              26.67652              26.60414
   AR                    0.55390              11.15376              21.99539
   AR                   84.01914               2.70869               8.98939
   AR                   80.32723              21.65058              28.95660
   AR                    6.55374              30.81408               5.19870
   AR                   20.68900              32.01694               8.01198
   AR                   62.05181              41.86785              18.73856
   AR                   30.46674               1.69928              15.54155
   AR                   30.22502              23.11427              34.61773
   AR                   13.70630              25.01659              15.14682
   AR                   54.70704              17.76824              48.69715
   AR                   55.90168              13.36514              49.16312
   AR                   10.18918               7.56488               8.56174
   AR                    8.34472              25.78104              17.54478
   AR                  103.71850              31.81460              35.61743
   AR                   57.77156               3.24530              12.16383
   AR                    0.15788              14.92641              30.82502
   AR                   66.30858              37.61213              40.95238
   AR                   83.48272              14.86026              51.27235
   AR                   65.70081              28.76635               2.83757
   AR                   93.81241               7.94107               2.86708
   AR                   64.42216              43.62339              31.69273
   AR                   91.32979              26.62306               0.54330
   AR                   93.81246              11.18134              10.71619
   AR                   59.31420              11.27179              47.96205
   AR                   82.58984               8.49045              32.02523
   AR                   99.77788              26.06094              34.10381
   AR                    3.70951               8.06067              16.92266
   AR                   60.46137              49.89629               7.05168
   AR                   21.73511              23.84087               3.39360
   AR                   75.76460              40.66468              42.06005
   AR                   72.80712              46.89817              47.84950
   AR                   74.18915               7.16979              36.66589
   AR                   69.03697              34.47942              11.72083
   AR                   97.56670              39.03039              27.06812
   AR                   81.49661              50.18543              22.01946
   AR                   58.07320              22.26114              16.85196
   AR                   70.07760              46.96286              12.65828
   AR                   64.04496               3.25699              50.68708
   AR                   96.62908              19.50291              17.92338
   AR                    7.07258              29.42397               9.38817
   AR                   33.57652              11.54969              30.15441
   AR                   54.09643               3.69462              41.23130
   AR                   69.52276              48.92955               6.49105
   AR                   56.23834              21.06412              45.81258
   AR                   76.09852              49.28003              30.22643
   AR                   14.26572              26.42853               0.61608
   AR                   19.43216              22.45201              15.66449
   AR                   94.74077               5.72058               0.40106
   AR                  102.93528              17.37173              37.25314
   AR                    7.90173               4.89328              21.08295
   AR                   67.98673              13.37637              39.93972
   AR                   89.92167              12.20593              21.59146
   AR                   65.78889              30.88183              37.95295
   AR                   52.63114              52.57048              12.48801
   AR                   60.53994               7.38235              30.77228
   AR                   68.06190              32.25518              17.32335
   AR                   65.38329              51.24376               3.57397
   AR                   64.08787              37.85285              45.45273
   AR                   96.91487              48.82417              16.90069
   AR                   81.64416              14.47234              48.47842
   AR                  101.03743              21.92889              48.24516
   AR                   95.29778              20.71503               2.96837
   AR                   91.13455               6.88432              30.95150
   AR                   69.12003              12.69454               5.50928
   AR                   91.98612              47.67984              38.92297
   AR                   13.81890              28.57894              29.79225
   AR                   29.92665               4.55320               0.93017
   AR                   79.57089              17.56715              29.78076
   AR                   67.87876               8.14719              23.86586
   AR                   33.17542              18.26224              33.82793
   AR                   82.16041              23.94705              20.06742
   AR                   89.67799              24.00155              24.34379
   AR                   27.16087              34.52287              27.56672
   AR                   83.38996              11.39928              46.13491
   AR                    7.99347               9.72639              25.47196
   AR                   72.12385              47.88804              34.68447
   AR                   93.14839               7.25104              10.32520
   AR                   57.31470               4.57087              15.64883
   AR                   64.33558              34.41384              48.01762
   AR                  100.34548              22.11783              40.29321
   AR                   73.18299              37.08486              19.07575
   AR                   67.36244              10.40425              28.72151
   AR                   13.20310               4.18830              28.21256
   AR                   93.44795               9.15090               6.66538
   AR                  101.84544              51.75929              13.61950
   AR                   74.18254              19.01644               0.79116
   AR                   77.51487              50.12714              37.62821
   AR                   85.26959              52.31890              52.67871
   AR                   78.92729              29.34461              14.45777
   AR                   89.95839              12.91184              36.80596
   AR                   83.64219              37.90820              19.80031
   AR                    5.70241               7.91637               8.16312
   AR                   92.90152              27.59771              29.13153
   AR                    9.51138               6.92820              23.98244
   AR                  101.29885               9.15608              22.23861
   AR                   96.51600               4.20211              10.52073
   AR                   65.57735              36.85210              11.08794
   AR                   67.64286              32.37128              31.35221
   AR                   23.01082              12.57197              25.33266
   AR                   57.96183              35.12379               3.73365
   AR                   77.19851              19.91456              24.78553
   AR                   55.14627               8.82963              43.52037
   AR                   26.97644              23.97453              11.07085
   AR                   99.69664              14.27597               4.72358
   AR                   65.54573               2.80301              44.36275
   AR                   84.71602               7.26842              26.24096
   AR                   10.99156               0.18199              25.64326
   AR                   25.50533              32.88097              13.98492
   AR                   71.44608              15.77511              43.46926
   AR                   96.94979              52.00487              25.65538
   AR                    2.36968              19.86216               0.93251
   AR                  101.65995              20.91177              34.91999
   AR                   98.86017               5.67894              45.63162
   AR                  101.11554              12.04838              30.14766
   AR                    2.44490               7.91702               5.06530
   AR                   58.17617              47.84085              52.41908
   AR                   91.08910              19.33353              48.55633
   AR                   17.30754              32.77267              22.62436
   AR                   87.65747              16.72226               9.33659
   AR                  101.36133              38.78247              47.54514
   AR                   59.29077              42.78430              19.96142
   AR                    2.73030               4.01492              32.91241
   AR                   66.14275              14.65305               5.18006
   AR                   13.96700              28.65920               9.10642
   AR                   64.36564              50.57287              15.07702
   AR                   20.63014              14.81557               7.62677
   AR                   28.54815              15.04025               6.39308
   AR                   82.95681               1.88809              36.77840
   AR                   94.04448               2.34452              14.01878
   AR                  104.28765              36.82704              28.29149
   AR                   10.11452              16.32267              25.50135
   AR                  102.02149              13.63541              44.28530
   AR                   98.42349              26.84162               3.09778
   AR                   79.66666              22.31154              24.63426
   AR                    2.97285               4.34706              21.14405
   AR                   69.62589               1.08283              32.62943
   AR                   84.28894              29.31360              12.94645
   AR                   82.88717              32.86667              45.26677
   AR                   87.63245              10.21903              45.48181
   AR                   27.57020               2.79380              18.04143
   AR                   83.68548              18.87447              51.28595
   AR                   76.22086              15.96470               7.94795
   AR                   62.46937              18.55296              18.20019
   AR                   31.33693               2.93986              31.01882
   AR                  102.41437              31.02102               6.30814
   AR                   82.75722              21.33537              45.38537
   AR                   89.33914              11.38812              51.48613
   AR                   91.91683              12.07621               1.27425
   AR                  103.46283              47.14430              37.70690
   AR                   11.57626              16.26980              34.27374
   AR                    6.28506              15.97220               5.51698
   AR                   52.77044              40.72726              38.66373
   AR                   82.27168               2.86332              15.78086
   AR                   13.23170              14.39598              23.82612
   AR                   97.55996              28.57770               6.64909
   AR                   22.73817              27.29161              25.10099
   AR                   58.69340              39.74244              23.36998
   AR                   15.90527               9.06219              31.21843
   AR                   66.70521              32.47914              44.45024
   AR                   25.53363              18.51561              13.46588
   AR                   68.39955              52.52219              27.54880
   AR                   99.61023               1.00161              26.97288
   AR                   21.53741              19.13510              31.72937
   AR                    9.18616               4.90046               0.88260
   AR                   30.41573              29.81419              23.02213 FRACTIONAL
   AR                   73.94368               9.29516              51.03822
   AR                   97.45091              21.98954              13.01310
   AR                  102.95103              27.61660               2.76440
   AR                   73.79841              10.37269              25.00717
   AR                   52.50847              51.02554               5.50548
   AR                   16.85957               5.63950              32.99510
   AR                   33.99145               8.11309              28.21066
   AR                   79.67872               4.60882              49.37157
   AR                   60.06253              48.00099              23.17236
   AR                   93.51882              20.49081               0.27515
   AR                   79.12171              48.69684              26.93134
   AR                   64.49420              33.21009               2.89623
   AR                   18.25981              19.32876               1.74255
   AR                   77.23735              21.04225               3.52644
   AR                   72.54516              32.33723              39.35840
   AR                   92.92679              45.57907              24.88869
   AR                   84.02340               6.86318               8.61066
   AR                   18.41039              30.59497              13.06611
   AR                   87.79612              30.22796              10.09704
   AR                  101.67302              52.35730              33.20759
   AR                   68.47055              27.60316              35.66375
   AR                   85.05660               8.42034              48.33127
   AR                   78.80340              37.12822              17.15686
   AR                   15.09902              21.07255              15.00999
   AR                   93.11442              29.88441              51.99746
   AR                   88.77083               3.43637              32.12196
   AR                   91.47633              41.20822               4.59156
   AR                   83.98917              24.63863              36.48344
   AR                   87.04953              14.63104              29.02492
   AR                   87.71010              41.66742              16.66502
   AR                   97.42017               7.89101              40.86621
   AR                   87.24533              26.50283               7.71675
   AR                   93.50841              45.60524               6.26905
   AR                   87.85842              42.42088              47.11136
   AR                    8.51680              22.89361              14.95722
   AR                   30.48363               1.74930               6.98846
   AR                   71.65776               9.51018              34.58387
   AR                    3.22454               0.45846              18.66967
   AR                   82.26857              19.84706              34.74459
   AR                   57.01443              26.10609              49.00321
   AR                   14.54516              32.71064              24.80228
   AR                   89.62352              13.87759               2.80589
   AR                   74.87653              17.57252              35.32087
   AR                   87.32850               5.87244              48.53990
   AR                   64.96038              11.09093              48.70715
   AR                   88.44564               0.48884              43.06926
   AR                   11.23609              19.54058              32.15737
   AR                   11.09505               0.54382               7.18025
   AR                   23.71621               6.47327              18.84615
   AR                   69.02450              26.77502              46.50005
   AR                   69.98908              29.29073              38.75959
   AR                   70.24656              23.56596              22.08400
   AR                   76.56387               8.46918              12.11564
   AR                   31.89077              31.43674              26.68817
   AR                   79.28703               5.46059              14.16392
   AR                   54.68713              38.63247              35.87165
   AR                   82.19471               0.87665              26.51148
   AR                   84.29222               3.20588              45.64991
   AR                   74.80975              41.20342               5.06772
   AR                   28.19630              24.34169              17.13644
   AR                   69.15441               4.86172              39.72924
   AR                   29.52778              26.44610              31.16527
   AR                   64.76326               3.15101              31.19147
   AR                   57.71932               9.39826               0.94537
   AR                   66.55480              48.85951              31.21101
   AR                  104.63144               9.86731              21.14403
   AR                   73.99783              51.44185               4.65210
   AR                  103.58699               4.92376               6.13437
   AR                    5.94084               2.59148               4.80201
   AR                  103.24928               4.72367              50.44842
   AR                   95.81923              31.74358              49.26397
   AR                   80.13767              10.78770              50.36125
   AR                   54.29706              44.02547               3.19713
   AR                   58.92885              17.00898              44.94569
   AR                   25.67231              10.85481               1.03160
   AR                  103.76430               9.67548               9.20153
   AR                   61.15457              12.78492              41.54342
   AR                   97.77470              41.72522              24.86859
   AR                   68.44749              17.05807              47.92352
   AR                   75.42602              18.88283              11.49852
   AR                   76.41781              39.50602              38.83995
   AR                   95.08390               8.88178              17.99147
   AR                   99.13445              41.89711              35.05495
   AR                   22.27453              34.67612              34.60726
   AR                   25.07042               5.43605               7.74240
   AR                   70.64774              27.96023               0.24976
   AR                   18.27919              17.10981              12.53450
   AR                   62.26067               1.99698              16.64522
   AR                   11.30445              16.10839               4.26412
   AR                   68.92389              42.65850              27.41772
   AR                  103.22453              39.81360              23.73286
   AR                   82.92443              26.88400              19.22837
   AR                   86.23036              52.57222              37.98228
   AR                    5.71268              21.63101              23.16366
   AR                   54.27534              15.99862              14.58751
   AR                   80.02354              28.70223              17.78528
   AR                   18.55166               4.13130              30.08898
   AR                   83.74659              30.46188              18.43585
   AR                   65.57146              22.47688              39.60928
   AR                   69.61181              30.25772              49.36117
   AR                   89.36251              44.92998              15.97255
   AR                   60.40232               5.57086               1.32788
   AR                   66.54305              16.23738              15.78028
   AR                    9.10195              18.75683              15.02804
   AR                   81.11482              18.70552              13.96449
   AR                    7.92783              26.91686              21.33258
   AR                   74.83419              23.37421              43.71394
   AR                  101.46859              15.92332              46.61476
   AR                   56.07636              50.82408              34.48883
   AR                   63.90254              28.45226              32.02419
   AR                   98.47071              23.15322               3.99815
   AR                   99.01918              27.27178              28.32822
   AR                   16.79372              15.46021              20.14668
   AR                   32.93603              15.18545              24.82905
   AR                   55.41476              35.24868              12.02045
   AR                   58.51175               8.54889              35.00320
   AR                  100.11865              18.08477               3.39948
   AR                   17.03300              27.30191              12.42657
   AR                   34.63440               6.23072              24.38725
   AR                   65.61342              31.55148              25.73442
   AR                   84.89027              52.03461               6.84174
   AR                    9.46855              20.11749              25.51716
   AR                   26.62984               1.04256              14.84629
   AR                   81.46115              27.48939              22.51992
   AR                   62.51701              19.68607              47.56830
   AR                    8.84299              22.41507               3.32901
   AR                   82.67808              12.10834              42.67817
   AR                   61.64246              20.09610               5.95559
   AR                   80.06284              36.55945              51.70531
   AR                  101.45007              48.62621              12.19702
   AR                   82.62874              23.64599               2.03862
   AR                   59.23022              18.60197              16.85507
   AR                   74.40649               5.79962              17.14312
   AR                   67.69622              12.08102              20.19299
   AR                   21.04734               0.13932              24.45328
   AR                   87.12106               2.72774              27.95224
   AR                   88.64502               1.72449              13.13706
   AR                   73.61675              17.27909               4.02785
   AR                   30.41214               6.82851              29.24834
   AR                   70.19973              33.54362               0.25349
   AR                  100.33265              19.79545              17.00236
   AR                   59.68949               0.59507              15.10622
   AR                   89.58574               9.35605              48.36406
   AR                   16.04294              29.79659              25.21339
   AR                   60.25081              50.25985              17.58681
   AR                   75.40177               3.80894              35.52390
   AR                   57.84912              22.59090               5.46498
   AR                   79.87977              32.92444              40.89648
   AR                   58.77443              17.94016               8.63996
