       321
            33.92258            59.45002
   AR                   54.79047              53.36833              36.09590
   AR                   97.62981              13.24779              18.25629
   AR                   68.40849               8.06917              34.58159
   AR                   73.97704              47.43011              49.61279
   AR                   88.83599              30.27988              11.24911
   AR                   75.79484              13.66401              24.16721
   AR                   65.69127              37.14364              17.11243
   AR                  109.71508               7.88697              50.62753
   AR                  100.61112              12.95065              32.87963
   AR                   75.60082              47.24777              58.18523
   AR                   57.80750              13.52943              51.56643
   AR                   16.54498               1.45179              11.72382
   AR                   70.16179              40.33462              27.13684
   AR                   24.05866               5.52340               5.47258
   AR                   53.71280              34.68463              57.58390
   AR                   70.97419              35.52901              40.48083
   AR                   76.73747               8.15452               2.76814
   AR                   87.48317              55.79042              36.04881
   AR                   86.36167              35.12104              16.57537
   AR                   63.14679              27.90870              55.59399
   AR                   20.18805              32.91219              29.55425
   AR                   69.08690              40.28480              49.27382
   AR                   63.92857              54.15883              57.23879
   AR                   93.69716              18.39585              18.10125
   AR                   13.34590               9.96358               1.92882
   AR                   79.38313              36.64049              33.65460
   AR                   60.80134               5.26625              39.54901
   AR                   64.52562              50.85228               4.19482
   AR                   88.99319              50.95267              30.81901
   AR                  109.46868              35.25851              44.64920
   AR                   65.80740              22.71498              33.26397
   AR                   62.40078              46.05450              19.94008
   AR                   72.79394              33.06535               4.65034
   AR                   98.45369              18.73250               0.40813
   AR                   19.22752               2.91843              30.17566
   AR                   55.18587              42.18224               6.69292
   AR                   94.65920              33.37850              43.53482
   AR                   51.45720               4.87318              37.71271
   AR                   55.28550              28.21910              12.97598
   AR                   71.70165              18.70446               4.51692
   AR                   88.13990              16.24275               4.53016
   AR                   96.91880              22.95595              56.55130
   AR                   77.55721              23.62216               2.02137
   AR                   65.07996              36.04857               9.46905
   AR                   99.93630               2.27293               9.64847
   AR                   84.21578              44.12617               6.88050
   AR                  102.96468               9.92837              58.80439
   AR                   95.99782              28.64721              17.80740
   AR                   69.49333              10.36437              26.33174
   AR                   75.72953              46.72883              29.56886
   AR                   89.53008               8.97736               2.69322
   AR                   66.72914              24.93423              10.67231
   AR                   77.51220              28.37547              25.61663
   AR                   60.05778               0.39940              17.76031
   AR                   80.87594               9.48231              28.28974
   AR                   86.07647               5.31125              38.76521
   AR                   68.99529              57.26665               7.71928
   AR                  101.67804              40.46982              43.13462
   AR                   82.33334              33.87240               9.45057
   AR                   92.77880               6.42221              51.22874
   AR                   95.84656              12.80346              52.35548
   AR                   88.51418              21.63201              12.93620
   AR                   76.88029               2.99255               9.79663
   AR                   97.99821              26.79054              41.96920
   AR                   88.91140              42.67304              49.04329
   AR                   57.72853              54.62401               0.96479
   AR                  100.29372              48.49574              34.75750
   AR                   64.78213              46.63721              32.94419
   AR                   84.78837              39.52421              37.16366
   AR                   95.31117              47.51581              37.81671
   AR                   16.22111              20.37446               0.92278
   AR                   77.64591              22.40641              24.58971
   AR                   94.40165              20.31327              34.11939
   AR                   74.91568              29.86318               6.39874
   AR                   28.23134              24.69888               6.05079
   AR                   61.92886              42.49175              35.41657
   AR                   80.47054              59.37954              58.99924
   AR                   78.26390              31.42500              27.16053
   AR                   89.14291              12.73097              25.28168
   AR                   91.22298               9.63778              25.11948
   AR                    4.56089               1.24960               6.61890
   AR                   30.98829               2.35759               3.35128
   AR                   19.57727              25.04947              18.12764
   AR                   68.09800               2.23369              45.67406
   AR                   84.17152              25.81812              26.88005
   AR                   77.43581               5.59075              19.93456
   AR                   75.49395              53.03623               2.56658
   AR                   59.54939              10.43339              11.07637
   AR                   85.90994              34.41587               9.27652
   AR                   63.35313              43.31027              28.20315
   AR                    9.70544              11.30262              33.92040
   AR                   91.84961              19.08428              23.61884
   AR                   72.46727              50.10362              33.83486
   AR                   95.18148               6.85357              36.24797
   AR                   61.90815              46.26883              28.13214
   AR                   17.81284              13.00778              24.64847
   AR                   64.91250               5.74822              22.97657
   AR                  100.00657              17.30983              55.31406
   AR                  104.20673              32.97681              29.16355
   AR                   84.89716              29.88556              11.94588
   AR                   81.50904              12.94537               6.76987
   AR                   53.50646               2.90047              56.11526
   AR                  103.45140              20.22123              57.11315
   AR                  109.80112              25.26363              30.08461
   AR                   78.59997              43.66643               7.67930
   AR                   74.51854              29.46273              42.83607
   AR                   63.04420              56.45607              30.52380
   AR                   75.72413              51.78907              51.68020
   AR                   26.11209               5.98634              28.11533
   AR                   78.74151              50.37990              21.14036
   AR                   86.10297              10.76729              49.95185
   AR                   90.31484              56.28121              11.45633
   AR                   31.65608              18.53246              24.44613 FRACTIONAL
   AR                   96.21213              39.63018               7.54717
   AR                   83.04726              17.83420              11.50583
   AR                   87.48623              17.05798              23.37969
   AR                    3.21399              14.96683              32.10320
   AR                   62.84209              43.02151              42.64393
   AR                    4.25738              30.13694              31.83969
   AR                   61.83350              57.82345              33.56621
   AR                   56.39589              57.46570              37.93414
   AR                   28.06872              27.66506               2.43085
   AR                   88.21956              21.37564              42.57035
   AR                   63.87135              52.73081              38.92693
   AR                   18.60236              22.98023               0.33566
   AR                   79.29186              27.54967              56.31310
   AR                    3.77913              16.75763               4.29475
   AR                   76.39913               0.16279              41.11616
   AR                   90.62749              23.78908              18.74585
   AR                   25.89353              16.38023              11.47837
   AR                   76.50519              20.70627              44.50759
   AR                   63.41867              42.10364              20.49589
   AR                   84.93865               5.00587              42.09293
   AR                   90.14391              24.49982              14.16546
   AR                   86.19075              22.80448               8.39324
   AR                   54.39410              47.60631              20.10815
   AR                   22.60814               6.35330              22.00956
   AR                   69.98772              42.05391              20.67918
   AR                   31.56433              17.78017               2.69514
   AR                  108.71390              11.97941              44.20768
   AR                   74.22735              33.57743               0.27668
   AR                  106.14334              13.70012              52.89254
   AR                    7.65307              12.51751              14.62300
   AR                   59.14173              28.81168              17.85088
   AR                  109.24475              30.23575              59.17079
   AR                   77.89687              24.13204              13.37114
   AR                   89.57663              16.01276              30.17591
   AR                   57.97663              36.80252              10.89998
   AR                  107.07161              20.36762              13.59342
   AR                   88.95015              39.24796               0.39330
   AR                   61.37064              34.99933              48.52082
   AR                   71.53733              34.82253              37.34613
   AR                   85.92206              38.20154              14.37804
   AR                   81.23754               9.69055              59.37057
   AR                   82.98159              33.13706              20.92631
   AR                   11.93720              11.92302              16.32993
   AR                   32.94159               8.98096              22.22083
   AR                  104.60034              53.37297              56.09140
   AR                   92.74810              15.25790              35.10527
   AR                  108.40255              15.80413              42.26641
   AR                   80.31978              57.88225              15.26043
   AR                  101.03430              14.26959              25.44322
   AR                   13.61187               2.61996              33.44016
   AR                  102.53888              24.17335              17.49502
   AR                   76.57034              37.71638              31.33277
   AR                  105.06715              57.30889              42.97893
   AR                   91.35355              37.66432              18.34764
   AR                   71.25608              24.37174              16.15832
   AR                   72.74522              45.72582              41.26075
   AR                   80.37495               5.41245              11.11075
   AR                   55.21155              38.55757               9.67308
   AR                   94.90995              55.18033              48.93336
   AR                   94.56633              17.53222              26.56223
   AR                   87.71097              23.59653              57.92099
   AR                   60.48511              12.48460              44.78653
   AR                   82.78888              26.00237              18.92903
   AR                   85.25657              43.75002              44.34810
   AR                   71.66239              34.44159              21.52833
   AR                   70.30587              19.74179              50.02881
   AR                  100.11346              16.41396               9.21246
   AR                   52.85593              38.71807               4.05674
   AR                   82.25530              18.28339              58.01063
   AR                   81.25014              25.52507              29.30452
   AR                   72.92405              19.62023              11.57639
   AR                   63.28962              45.83637              36.70630
   AR                   97.76944              14.08671              48.76190
   AR                   78.58352              19.66394              15.99570
   AR                  101.10075              24.53724              28.99277
   AR                   78.64597              28.75935              30.34917
   AR                   85.75434              46.59472              52.52316
   AR                   78.10153              29.90720              18.82437
   AR                   80.09987               8.51622              24.08564
   AR                   57.51050               6.03366              39.81913
   AR                  107.61752              53.96610              57.99365
   AR                  103.24317               9.60989              33.16938
   AR                   30.51165               4.79416              12.88309
   AR                   57.05676              36.55833               0.06083
   AR                   87.26209              17.14607              11.25957
   AR                   94.21021               7.04315              43.92909
   AR                   51.41515              17.78868              29.53473
   AR                   73.05596              57.36835              26.81578
   AR                  101.94053              30.06106              17.98890
   AR                   82.50555              46.27540              42.64888
   AR                   68.50660              58.73742              38.77889
   AR                   89.94435              12.08302              38.24568
   AR                   89.05248               2.08657               4.87692
   AR                   97.80845              35.75157               5.09726
   AR                   71.48906               5.75051              22.85891
   AR                   79.09252              57.22302               5.57737
   AR                   92.53568              31.68734              50.12152
   AR                   15.63952              14.56390               6.14565
   AR                   79.82812              57.59674              55.57945
   AR                   69.28013              11.78785              15.45334
   AR                   70.34696              13.46989               1.44273
   AR                   87.97172              29.15473               0.16826
   AR                   93.18368              27.58935              50.41303
   AR                  105.22456              23.22778               7.59132
   AR                   70.13117              26.07414               0.81566
   AR                   94.69478              49.74663               4.08580
   AR                   17.64683              25.12590              11.47416
   AR                  104.58507              37.91794              38.43055
   AR                  101.19591              38.53834              38.57433
   AR                   92.39767              14.36514              11.70687
   AR                   80.06521              51.82628              52.13210
   AR                   88.57319              40.23542              16.14710
   AR                   62.01882              12.71107              39.07239
   AR                   55.24976              34.00736              41.65970
   AR                   82.19375              34.34771              15.95748
   AR                   26.67694              18.58877              18.08377
   AR                   68.22798              52.89875              53.08694
   AR                  101.19805              56.03315              26.39366
   AR                   69.73698              38.45768              38.08607
   AR                   60.49496              54.74105              34.52161
   AR                   57.84029              37.43838              40.98275
   AR                   86.27438              34.13396              21.93880
   AR                   98.40006               8.08898              24.57577
   AR                   52.67351               8.68729              33.05221
   AR                   78.89977              14.68631              44.60936
   AR                   94.94685               5.10421               0.76505
   AR                   28.77774              22.02510              20.61782
   AR                  110.09766              48.53935              22.22017
   AR                   54.61826              19.92453              12.48636
   AR                   61.75343              44.76743              51.27173
   AR                   53.48822              13.92741              57.44301
   AR                  104.59042               1.11301               3.22057
   AR                   79.29838              50.03110              13.78927
   AR                   95.13872              21.48243              52.55674
   AR                   92.82932              43.69593              10.86426
   AR                   63.55818              40.39762              13.37612
   AR                   88.03014              27.17124              15.61472
   AR                   66.32844              47.32999              26.96124
   AR                   86.80624              22.82107              28.07866
   AR                   95.06950              23.69297               7.92466
   AR                  101.33686              24.41617              59.20490
   AR                   87.07168              46.54742              13.29013
   AR                   74.05570              27.30633               1.53018
   AR                   72.20614              51.95124              50.81153
   AR                   70.77566              38.67947               6.92046
   AR                   63.16121              47.36402              49.42883
   AR                  106.14728              23.60390              15.36898
   AR                   95.53566              47.58746              50.55052
   AR                   70.28311              18.88225              20.29150
   AR                  100.20381               1.07943              51.64606
   AR                   79.70136              37.32125              19.39671
   AR                   93.02037              32.11556              59.36109
   AR                   67.78500              44.38538              35.92422
   AR                   67.29295              55.01961              11.32523
   AR                   66.37513               7.04862              49.98129
   AR                   51.38886              26.12234              43.89449
   AR                   13.16636              20.54033              13.38280
   AR                   80.79695              11.90780              51.83611
   AR                   65.97691              58.44626               5.16283
   AR                   73.26822              21.46405              38.46800
   AR                   84.09040               2.40560              24.66318
   AR                   78.18745              18.08736              30.73954
   AR                   71.03939              24.47477              26.12624
   AR                   77.82313              56.26227              49.15351
   AR                    7.74236              27.30721              20.29675
   AR                   72.56409              57.56554              32.28598
   AR                   91.81568              21.31500              14.33866
   AR                   83.50160               4.69984              50.00797
   AR                   27.79555              23.21928              10.48087
   AR                   90.31960              33.88400              57.92005
   AR                   19.33419              20.94789              10.13236
   AR                   65.13170              32.31227              18.73632
   AR                    8.83636               0.60555              23.35870
   AR                   89.55117              35.77083               8.77898
   AR                   57.62104              39.41008              30.48601
   AR                   98.04287               1.49997              54.03247
   AR                   87.25910              28.56548              33.01043
   AR                   54.13715              37.53692              21.17900
   AR                   98.50449              58.24286              25.28821
   AR                   96.37464              25.76807              51.05797
   AR                   57.16544              18.20102              57.42558
   AR                   81.47375              47.85911               2.66692
   AR                  103.51197              40.31094              13.08011
   AR                   99.77333              31.81642              14.10379
   AR                   94.90794              33.38000              56.64735
   AR                    1.80189              17.79502              21.77780
   AR                  107.59625              42.04533               5.02592
   AR                  102.03464              47.91013               7.88795
   AR                   78.85658              13.52513              48.82116
   AR                   70.73353              39.27822              54.30133
   AR                  107.84586              51.29870              18.10337
   AR                   81.81359              42.67417              12.22666
   AR                   53.31719               8.92394              49.29713
   AR                   23.95473              20.30184               6.40554
   AR                   73.64464              43.03952              29.96598
   AR                   73.24568               5.08776              40.92513
   AR                   15.59577              32.24731              10.06070
   AR                    1.62402              11.79062              30.00116
   AR                   33.84265               6.69289              19.27315
   AR                  108.82638              58.26794              30.67000
   AR                   59.54226              20.11112              48.24439
   AR                   81.41826              16.56837              40.68977
   AR                   72.06991              25.98456              19.69813
   AR                   22.09092               7.64781              28.65209
   AR                   95.89535              24.53855              14.56833
   AR                   76.74827              40.70739              50.57805
   AR                   73.31061               0.90390              47.05241
   AR                    0.58858              12.40473              24.10376
