       301
            32.78541            64.19277
   AR                   96.37719              12.66603               6.28959
   AR                   92.72514              10.72870              43.55733
   AR                   87.57969              47.64370              24.62470
   AR                   55.12641              38.22055              16.64580
   AR                   77.24575              35.09090              49.38652
   AR                   58.31297               6.71036              10.70452
   AR                   99.12553              24.52483              22.17033
   AR                   59.84666              44.13451              24.37688
   AR                   82.57315              52.86746               8.95687
   AR                   98.63508              51.64141               2.02768
   AR                    0.58533              18.61657               7.66000
   AR                   64.81544              13.21333              22.45703
   AR                  111.84231              58.64103              54.28082
   AR                   53.70631              32.29148               1.70072
   AR                   54.71647               7.20286              62.74002
   AR                  110.17978              45.66465              46.69452
   AR                   70.71820              62.67336              23.76510
   AR                   24.20088              23.99839               6.92603
   AR                   98.18220              63.84009              42.87478
   AR                   94.42714              46.29170               9.02254
   AR                   84.61433              56.53464              60.80160
   AR                   61.23200               6.02762              39.87076
   AR                  106.57107              57.95250              54.57105
   AR                   50.08081              14.46950              18.74183
   AR                   80.02560              63.12589              16.34240
   AR                   60.25151              34.41209              56.44861
   AR                   60.36368              54.77176              44.63781
   AR                   98.41089              52.61101              24.02588
   AR                   50.61511              17.46029              24.69441
   AR                   82.12703              11.84583              60.12698
   AR                   86.62537              32.89864              29.62247
   AR                  111.60903              54.54237              54.55512
   AR                  103.81394              47.88334              35.03392
   AR                   95.01993               6.90094              26.66470
   AR                  102.69079              13.23734              56.06152
   AR                    1.29504              10.90979              14.53337
   AR                   21.56416               6.12413              18.63178
   AR                   28.43026              16.90764              11.76058
   AR                   69.39627               5.84511              46.39314
   AR                   10.41065              24.72267              10.41363
   AR                   96.17774              27.90032              24.90832
   AR                   63.53813              59.81332               9.97377
   AR                   15.03554              17.13970              12.37905
   AR                   58.70402              24.46021              39.78414
   AR                   57.98549               3.58759              61.05100
   AR                  103.30105              48.02139              25.44963
   AR                  104.91915              23.81925              63.59620
   AR                   55.83827              12.63119              42.42994
   AR                   94.51560              49.82524              15.60612
   AR                   77.79306              23.08040              43.52090
   AR                  102.01077               3.50859              10.89694
   AR                   95.28766              46.72877              18.01044
   AR                   69.84963              21.86905              50.95790
   AR                   57.24887              60.06589              19.99749
   AR                   79.87630              42.87757              45.18191
   AR                   98.61628              44.84847               2.12405
   AR                   82.98186              31.06738              21.44069
   AR                   82.18669              31.38855              16.34796
   AR                   83.17157              50.73764              46.62427
   AR                   80.50409              22.55349              15.17890
   AR                  101.79167              60.54595              49.84951
   AR                   88.18518              52.48155              21.52663
   AR                   32.24324               8.34040              18.69175
   AR                  100.52697              25.14970              33.30543
   AR                   62.73010              37.99872              26.39501
   AR                   55.72593              39.04064               7.42173
   AR                   56.37778              30.49138              33.10472
   AR                  109.55943              23.96506              51.89574
   AR                   61.38234              40.70007              38.66983
   AR                   93.98609              48.33710              33.26847
   AR                   10.07246              27.01997              12.95173
   AR                  103.03169              15.51898              53.36750
   AR                   29.96121               5.79454              21.55816
   AR                  105.52221              57.01728               7.21443
   AR                   89.17410              57.44425              53.32982
   AR                   65.36800              33.18604              30.45041
   AR                   71.16798              46.61991              17.18664
   AR                   63.76590              55.92550              35.55365
   AR                   94.38046              12.93782              26.44075
   AR                   52.84039              18.93632               5.67649
   AR                   59.23329               6.68047              17.81736
   AR                  102.78578               8.47652              27.68187
   AR                   79.09169              49.19658              32.02587
   AR                  101.19830              24.80824               4.68286
   AR                   57.95056              34.11316              29.85682
   AR                   82.59789              10.02972               4.81600
   AR                   73.32602              16.09926              36.38944
   AR                   87.32715              18.21420              30.43640
   AR                   22.41990              21.28749              27.33530
   AR                   64.47679              37.99439              14.50224
   AR                  108.83064              48.55652               2.55668
   AR                   92.69551              34.16241              40.06185
   AR                   70.75105              48.57067              50.74431
   AR                   19.61389              15.37457              17.97698
   AR                  103.26726              30.42482              21.31504
   AR                   57.14992              17.53400              21.66199
   AR                    7.33959               6.18715              30.87556
   AR                  112.77519              29.32647              34.66521
   AR                  107.75647              14.28817              32.41904
   AR                  102.31920              23.02956              46.06293
   AR                   67.72460              22.06827              44.99240
   AR                  104.11970              56.52320              44.77448
   AR                  112.00014              11.78981              17.95711
   AR                   82.21362              60.66769              53.78276
   AR                   98.08165               8.37099              50.54078
   AR                   69.31626              61.43897              27.67667
   AR                   82.30750              43.26583              37.99799
   AR                   89.89789              32.31294               8.78277
   AR                   92.58383              30.38524              10.30565
   AR                   88.32099              43.92070              50.26180
   AR                   67.39659              58.56500              32.65521
   AR                   58.27084              36.58485              25.24585
   AR                  104.16180              13.93091               0.23829
   AR                   52.21930              42.45957              41.91608
   AR                   80.70080               2.03248              15.08676
   AR                   72.94258              13.40189              14.58300
   AR                   55.00611               3.45241              53.31956
   AR                   64.83523               7.61356              52.29697
   AR                   97.41582              48.54370              15.67142
   AR                   60.77815              34.77906              39.06757
   AR                   81.19908              35.03056              14.71365
   AR                    2.10759               6.80448               3.42487
   AR                  101.70507              28.09283              36.34410
   AR                  108.81256               9.28411              40.26151
   AR                   57.28513              21.92951               2.72130
   AR                   76.88194              51.39775              44.46408
   AR                    2.42521              24.56366               1.78162
   AR                   59.63426              52.10263              55.52077
   AR                   93.80017               5.66376              34.33846
   AR                   30.96088              21.60258               3.57751
   AR                   82.54140              14.44591              15.39451
   AR                   28.84738              29.17045              21.02582
   AR                   72.63005              19.72725               1.14766
   AR                   63.85251              19.58431              49.93336
   AR                   62.36318              49.76986              60.42085
   AR                   63.49085              20.91576               8.50505
   AR                   77.87029              42.27954              28.44279
   AR                  109.49601              62.89612              37.94016
   AR                   81.85787              46.05262              28.66017
   AR                   76.81697              32.57312              44.30359
   AR                   88.69606               8.39923               2.30127
   AR                   71.62771              59.47069              11.25250
   AR                   56.81087              20.41347              43.42066
   AR                  106.97656              43.06344              51.31784
   AR                   56.32926              60.32962              62.79985
   AR                   52.88859              43.45981              27.86474
   AR                   84.56803              39.00736              48.67688
   AR                   85.63632              16.73902              15.75575
   AR                   83.64937              11.02424              22.56355
   AR                   82.09894              10.02658              14.68770
   AR                   49.38285              63.31764              16.15522
   AR                   65.29624              16.14172              63.22792
   AR                  112.64342               3.36812               0.98399
   AR                   81.07474               6.80646              44.32394
   AR                   86.29966               3.30538              62.44204
   AR                   61.02651              17.89955              18.68085
   AR                   81.11907              46.55749              34.38725
   AR                   55.34241              57.38784              16.61235
   AR                   54.75523              34.77923              38.90836
   AR                   65.36461              56.45012              51.74691
   AR                   76.13925               1.34186               4.01611
   AR                   61.81712              18.36212              61.97360
   AR                   80.90552              50.76100              20.27974
   AR                   93.61988              13.98838              59.12720
   AR                   86.53937              50.41845              55.29933
   AR                   56.27178              33.74467              52.70647
   AR                  100.55655              45.56893               5.65170
   AR                   96.67184              45.77414              56.83497
   AR                   59.47986              14.62408              16.61474
   AR                   91.03548              32.40652              22.72622
   AR                   61.35058              20.33423               4.68979
   AR                   65.89956              39.55174              62.29738
   AR                  112.86987              32.92479              36.52620
   AR                   28.41820              24.98485               1.10921
   AR                    3.37868              32.68802              25.03065
   AR                   51.90727              13.22419              57.11573
   AR                   54.95827              59.95407              41.56196
   AR                   91.88786              57.47880               4.95622
   AR                   56.02892              53.96229              27.66289
   AR                   98.12042              55.62196              51.11483
   AR                  108.08500              59.06242              29.21238
   AR                   63.52140               9.96797               4.19318
   AR                   66.29432              39.34312              18.52469
   AR                   95.92636              62.03723              52.99009
   AR                   97.25133              49.99105              40.01748
   AR                   99.12657              19.90681              16.15489
   AR                  105.24687              13.16332               8.09468
   AR                  103.28300              30.31664              39.64484
   AR                   83.46844              44.49832               5.03172
   AR                   83.93570              52.76192              29.98026
   AR                   72.61924              15.56636              40.23319
   AR                   68.92780              17.94479               9.22886
   AR                   57.89392              47.37438              13.26586
   AR                   89.34385              24.73630               4.24352
   AR                   55.41825              19.94587               8.59486
   AR                   50.77997              30.87821              58.68891
   AR                   56.05274              21.75118              15.10239
   AR                  108.72282              32.56588              41.27100
   AR                   16.85797              31.55818               9.17417
   AR                   60.44550              14.84671               8.87645
   AR                  100.55698              24.23808              54.40024
   AR                   51.84997              45.93236              56.39782
   AR                   74.52293              10.10809              16.48295
   AR                   74.84417               9.46332              43.41579
   AR                   31.00178              31.37627               5.11577
   AR                   61.46894              40.36086              29.75552
   AR                   53.99910               3.80858              31.05364
   AR                   72.33997              41.01386              10.55784
   AR                   50.69310              48.12705               2.15667
   AR                   16.26759              19.72573              25.00079
   AR                   71.24482               5.32110              63.31717
   AR                   59.84584              16.80395              13.87181
   AR                   91.38878              21.35806               1.94892
   AR                   84.89922              49.78747              21.48164
   AR                  107.32855               8.13233              62.76893
   AR                   76.68898              19.30437              21.18038
   AR                  106.48654              11.70214              34.64072
   AR                   78.91770              54.08321              62.03776
   AR                   19.22679              12.65799              10.69866
   AR                  100.53395              18.22465              38.95808
   AR                   81.30868              49.36256              50.12646
   AR                  109.22281              49.04802              44.67190
   AR                   73.03538              20.69568               6.37341
   AR                  105.69643              16.78358              62.20987
   AR                   90.78144              37.54901              38.97751
   AR                   55.17755              25.03852              41.61845
   AR                  112.76837              45.08732              23.97261 FRACTIONAL
   AR                   22.94013              21.15689              20.29989
   AR                   26.39199              16.33857               1.25971
   AR                   96.96226              21.00965              32.51163
   AR                   61.99415              15.53773              21.28366
   AR                   97.13448              12.53355              47.32761
   AR                   90.06090              39.22986              49.99468
   AR                  112.89029              38.94289              40.83751
   AR                    3.05461              26.51523              28.49174
   AR                   85.84415               4.06199              50.87765
   AR                   13.52926               5.45096              18.74417
   AR                   23.54947               1.95255               8.65242
   AR                   83.86021              33.69375              39.49729
   AR                  112.37071               5.19760              55.97573
   AR                   59.20715               3.44017               6.44498
   AR                   57.48155              32.83004              16.20923
   AR                   86.62395               9.44585              47.85209
   AR                   93.89077              40.82930              13.12269
   AR                   98.46755               3.62784              54.35157
   AR                   49.47582              31.37813              43.97446
   AR                   50.71978              49.38106              59.58995
   AR                   52.29387               8.97686              38.16034
   AR                   99.57561              36.00639              18.17386
   AR                    8.98716              14.23420              17.88160
   AR                   90.62875              36.33930               0.33922
   AR                   77.26572              25.56623              28.45587
   AR                   32.71219              16.38295              24.59000
   AR                   93.54795              53.34863               2.90266
   AR                  108.14696              62.87583               1.16471
   AR                   49.49645              61.44039              23.33170
   AR                   58.69054               9.13286              48.84473
   AR                   92.31161              46.22303              26.03192
   AR                    0.05578               4.55464              18.71925
   AR                   14.76384               9.64768               1.93403
   AR                  105.38641              51.33671              52.61873
   AR                   98.76098              12.24795              31.47720
   AR                   80.94492              21.63466              24.77303
   AR                  105.53040              12.73615              44.46531
   AR                   96.46695              12.92549              12.76389
   AR                   97.47937              15.40627              38.47787
   AR                  106.13412              12.52961              55.42766
   AR                   49.91453              37.82152              52.02097
   AR                   80.81184              59.61184               9.05908
   AR                  108.01154              31.38320              26.79126
   AR                   50.20614              17.11682              37.31672
   AR                   89.98057              56.64202              39.56338
   AR                  103.13418              20.51855              34.61619
   AR                   69.65375              54.20782              21.66055
   AR                   75.81713              49.80035               3.26892
   AR                   28.32024              14.33832              13.41242
   AR                   81.18559              25.19029               1.59580
   AR                   59.41297              35.29929               3.16025
   AR                   52.71016               7.34724              27.63849
   AR                  108.43143              12.11210              28.29205
   AR                   87.66939              62.13663              50.80634
   AR                   53.88032              59.39422               5.60696
   AR                   59.00056              24.99129              35.74677
   AR                   61.74320              18.38399               1.74303
   AR                  102.81342              28.20580              32.07738
   AR                   88.17625               5.05175              54.42727
   AR                   68.38907               0.62273              42.07163
   AR                  107.81430              25.87147               4.47274
   AR                   53.27483              22.09400              21.57887
   AR                   10.29517               6.63506               0.62722
   AR                   59.63482              51.59679              47.50652
   AR                   70.56955              18.92607              18.33410
   AR                   68.92545              45.09494              29.68612
   AR                   60.41156              63.83776               8.18114
   AR                  112.29880               1.04431               8.03871
   AR                  112.91077              20.42233              34.83353
   AR                   68.06601              31.98650              21.76611
   AR                   68.72323              52.97529              62.31930
   AR                   85.73745              16.56810              25.35842
   AR                   89.47163              60.08185              32.85506
   AR                   74.60784              22.55577              48.76937
