       461
            32.66723            51.25291
   AR                   27.58303              13.09616              29.91264
   AR                   77.67319              25.05836              12.25447
   AR                   60.92012              34.12948              40.93930
   AR                   88.60768               6.12354              29.70259
   AR                   54.07228              10.14355              34.66239
   AR                   49.56742              23.86852              13.04888
   AR                   69.30917               6.69346              26.05432
   AR                   79.19921               3.74938              13.12630
   AR                   98.27547              17.10320              42.93800
   AR                   68.87687              39.85390               8.93899
   AR                   68.09318              29.93315              36.25993
   AR                   73.17798              38.01080               6.70469
   AR                   15.02289               2.56322               0.10616
   AR                   91.86417              37.79242              49.93525
   AR                   89.09324              21.26292              20.04356
   AR                   55.38255              43.95561              22.12004
   AR                   57.22463              26.62352              51.15635
   AR                   79.79374              28.20325              43.05113
   AR                   61.48741              37.87031              40.78638
   AR                   95.88807              47.46570              28.03389
   AR                   97.70851              35.22809              37.37020
   AR                   17.92372              20.39333               8.82993
   AR                   61.05551              46.43818              22.18161
   AR                   49.68145              15.57642              34.42668
   AR                   53.22386              33.68610              46.12149
   AR                   57.75915              16.87587              38.28283
   AR                   70.45443              46.45661              20.56001
   AR                    6.46800               9.75732              32.15454
   AR                   70.81857              29.61490              32.70247
   AR                   56.10220              41.33300               2.92409
   AR                   19.20452               9.82397              12.56332
   AR                   50.18042               5.00423              16.61120
   AR                   93.96909              18.49507              43.63834
   AR                   74.68288              26.90845               9.00762
   AR                   69.56999              17.85630              20.08211
   AR                   85.93477              10.03359               9.45146
   AR                   68.06100              15.80569               2.47077
   AR                   62.62949               4.27739              18.61034
   AR                   17.91631              13.38909              12.31605
   AR                   26.08588              19.46186               6.42739
   AR                   79.03489              20.55496              10.93305
   AR                   94.27566              15.46054              19.78603
   AR                   97.38950              50.87312               0.71905
   AR                   63.59355              27.29039               5.50357
   AR                    3.39446              30.73277               3.56887
   AR                   61.28885              36.47071              23.79278
   AR                   16.21318              30.86161               5.98288
   AR                    1.12241              19.81992              19.57908
   AR                   90.45504              43.65345              15.08266
   AR                   88.23090              21.16636              31.89519
   AR                   77.37547              25.12397              36.97805
   AR                   81.27231               0.61113               7.03720
   AR                   25.01181              17.85129              24.64148
   AR                   53.74118              50.88184              19.68518
   AR                   84.88875              48.19582              21.47796
   AR                   93.17213               0.45705              42.87571
   AR                   67.03423              29.69677              41.11620
   AR                   84.29216              13.21301              15.67787
   AR                   11.91392              29.01554              25.26855
   AR                   62.62051              42.75096              38.61503
   AR                   78.75051              45.16315              40.52371
   AR                   76.43779              30.97709              15.28391
   AR                   66.30593              28.65588               3.95385
   AR                   73.81142              37.89385              50.89942
   AR                   79.29088               5.28578              36.41235
   AR                   60.78655              14.44680              26.59587
   AR                    2.34594              16.59969              18.31281
   AR                   81.31395              21.97460              22.67769
   AR                   83.89354              28.84724              40.48106
   AR                   89.01146               4.30505               7.72983
   AR                   79.93809              43.86224               8.75516
   AR                    1.13244              24.66378              16.70786
   AR                   90.85541               6.14627              50.39232
   AR                   21.27985              28.81728              26.64406
   AR                   98.48308              30.22001              22.03029
   AR                   60.67206              39.87858              37.24650
   AR                   73.50178              44.05314              38.12212
   AR                   92.28099               9.46185              18.25728
   AR                   70.47414              29.67191              21.00321
   AR                   69.77824              33.55664              40.10756
   AR                   17.77397              32.16852               8.81510
   AR                   59.30942              50.37265              44.15977
   AR                   31.58309              32.60379               1.73367
   AR                   68.58724              25.00725              48.66268
   AR                   66.00237               8.03514              34.22442
   AR                   98.26609               4.55723              40.93392
   AR                   53.17447              48.19158               4.50435
   AR                   84.85560              41.47671              26.83197
   AR                   59.36210               9.42239               0.46478
   AR                   66.23608              44.61635              23.24381
   AR                    3.76494               8.53586               6.98819
   AR                   98.13984              32.21168              33.61102
   AR                   62.79579               8.76539              34.03622
   AR                   64.65201              40.55798              25.84431
   AR                   88.31403              39.74856              46.85388
   AR                   21.99607               9.18008               6.79810
   AR                   58.00496              32.16619              18.20795
   AR                   60.09151              19.83631              33.44624
   AR                   79.67415              29.38006              16.52656
   AR                   59.35497              14.82806               3.88873
   AR                   21.17667              11.88759              14.88235
   AR                   57.81628               9.35882              45.66309
   AR                   98.48327               1.85786              43.46218
   AR                   92.99938              17.32135              35.13696
   AR                   68.26862               7.19926              38.58261
   AR                   85.89873              27.46764               1.19571
   AR                   66.96684              32.04883              12.28559
   AR                   30.74358              26.37740              31.78422
   AR                   97.80763              33.69577               2.56933
   AR                   94.65322              41.04250               2.06492
   AR                   54.99636               5.53354              31.23723
   AR                   80.14923               5.52216               1.38248
   AR                   27.65829              21.17630               9.58484
   AR                   89.15281               3.47976              49.12671
   AR                   55.93222              42.36589              43.55977
   AR                   99.61991               6.89949               8.58388
   AR                    9.79144              14.32813              24.18100
   AR                   27.82798              23.55794               7.07944
   AR                    0.00111              14.08348              20.19115
   AR                   50.19843              25.62663              38.40895
   AR                   75.48445               1.09533              10.22597
   AR                   75.55221               9.64245              20.10420
   AR                   58.38590              27.68954              30.22346
   AR                   92.90339              41.44265              34.08146
   AR                   23.33446              20.94356              31.48508
   AR                   30.76168              27.43069               7.60519
   AR                   88.48505              37.48455               7.66457
   AR                   24.48883              24.53450              30.68374
   AR                   51.56381              44.54328              21.33194
   AR                   75.21571              46.09514              35.67442
   AR                   54.46722              23.59298              16.98319
   AR                   64.89186              11.19108              13.64224
   AR                   99.09591              29.40874              29.98474
   AR                   77.81589              18.11735              19.83058
   AR                   78.24729              15.66369              37.09893
   AR                   82.30483              49.39751               0.71047
   AR                   84.10644              28.03770              13.76311
   AR                   87.83281              46.94678              20.63870
   AR                    3.13479              15.77735              10.04206
   AR                   84.30545              38.13195              42.39855
   AR                   61.90025               9.27806              18.25818
   AR                   59.92978              27.65423               9.22226
   AR                   98.42101              11.92063              32.42077
   AR                   89.36205              18.27384              50.57533
   AR                   68.18743              35.44151              19.07413
   AR                   52.40238              22.78990              39.86238
   AR                   64.18717              28.15002              38.74436
   AR                   95.50944              27.67507               3.74795
   AR                   27.11776              29.47187              19.05021
   AR                   50.97161              42.69622              15.56131
   AR                   86.57348              30.27256               8.14633
   AR                   22.70931              10.91148              26.45309
   AR                   71.98222               4.53134               2.72417
   AR                   32.55942              15.06115              26.79461
   AR                   28.28333              22.98987              29.73816
   AR                   89.11575              33.74877               4.92100
   AR                   13.88808              18.24255               8.99644
   AR                   89.87644              15.65103              47.88427
   AR                   75.93860              35.31369              15.22758
   AR                   23.13125               0.79223              17.35308 FRACTIONAL
   AR                   93.79755              34.44459              41.04778
   AR                   62.04814              42.85452              23.05874
   AR                   92.80484              29.91929              15.32222
   AR                   67.96960              41.70580              20.76427
   AR                   59.14050              31.70507              23.86713
   AR                   75.80802               4.59001              10.74131
   AR                    9.32589               2.77057               9.53587
   AR                   58.78502              49.28366              21.17857
   AR                   66.93630              26.79417              10.35214
   AR                   85.43400              26.13455              46.99583
   AR                   69.39118              22.35960               4.09566
   AR                   31.53314               1.08683              29.26438
   AR                   75.72008               9.92031              34.95559
   AR                   99.04027              32.62161              17.63304
   AR                   90.82819              27.11497              10.54157
   AR                   24.08910               6.65457              32.12464
   AR                   78.68883              11.61079              29.16503
   AR                   55.35402              32.52118              41.87442
   AR                   98.37957              31.87757              41.82086
   AR                   64.34079              42.40651              46.60071
   AR                   70.36519              34.39442              31.94267
   AR                    1.99105              26.67946              22.61288
   AR                   56.77213               6.87486              39.12146
   AR                   58.15433              47.88041              46.97177
   AR                   82.46059              48.86830              27.09809
   AR                   83.72005              19.01823              46.35963
   AR                   53.57117               7.38838              22.01611
   AR                   63.37888               3.08932              15.28566
   AR                   90.38355              11.39993              38.38519
   AR                   52.41711               9.24158               8.10670
   AR                   88.15910              39.06523              42.48286
   AR                   92.35071              24.23473               0.43483
   AR                   67.39465              41.38866              41.62983
   AR                   59.27467              24.00476              26.11973
   AR                   25.95809              32.62500              20.70139
   AR                    5.98596              10.43483              25.94865
   AR                   76.12212               2.58977              19.36059
   AR                   73.98358              42.04071              51.22075
   AR                   68.09627              22.57224              11.53800
   AR                   86.10364              46.64869              47.59594
   AR                    7.70372              26.67742              10.53836
   AR                   95.14535              46.45894              44.63123
   AR                   19.22451              13.59705               4.38345
   AR                   88.00993               3.72788              26.24094
   AR                   49.45574              42.67201              45.97986
   AR                   13.97358              32.41897               2.97168
   AR                   97.94149              47.37944               0.00889
   AR                   57.92237              43.57887              50.88812
   AR                   99.31614              20.83713              21.98535
   AR                   88.01535              19.47568              39.32182
   AR                   73.62255              25.75549              14.80919
   AR                   95.63444              11.66766              36.12363
   AR                   93.34079              47.10400              33.71316
   AR                   76.28968              36.11369              41.59693
   AR                   75.50899              10.39613               6.87536
   AR                   71.37461              14.76223              42.54346
   AR                   76.03166              22.28464               4.49783
   AR                   53.09711              31.81068              33.77714
   AR                   89.12223              29.01199              45.17924
   AR                    7.58423               7.43375              16.77553
   AR                   71.82768              33.77644              26.97515
   AR                   65.16842               5.98773              30.95791
   AR                   80.38018              25.35537               4.87612
   AR                   50.29430              12.56990               1.99322
   AR                   92.40483              49.41652              40.25919
   AR                   16.44465              16.44952               3.11315
   AR                   94.54716              30.81530              40.13999
   AR                   80.78066              28.95642              29.20005
   AR                   89.90723              41.90247              36.40499
   AR                   49.98112              33.59911              33.96154
   AR                   60.93345              40.48357              49.34817
   AR                   79.06913               7.57823              31.50633
   AR                   94.12784              12.67097              39.59236
   AR                   72.00313              41.92956              11.12327
   AR                   63.32601               6.91485              49.05753
   AR                   89.83829              25.46571              46.61290
   AR                   49.45017              23.06081              30.17854
   AR                   55.72465              25.25925              27.21381
   AR                   76.01368              45.44586              10.22840
   AR                   79.56427              39.04193              22.72326
   AR                   78.95653              43.03942              20.63956
   AR                   57.51631              21.60325               5.88323
   AR                   87.41426               1.30402               7.51298
   AR                   10.98379              19.54587              18.52580
   AR                   70.68153              47.77596              16.10720
   AR                   65.38165              12.55662              35.67574
   AR                   57.04866              37.67833              34.60392
   AR                   61.52933              11.87645               6.76880
   AR                    1.46728               0.01958               6.26708
   AR                   67.64341               6.67051              10.51807
   AR                   90.45024              49.06568              44.35671
   AR                    0.09743              16.92308               1.26404
   AR                   73.53130               6.88995              43.38344
   AR                   49.48428              50.52402              16.37258
   AR                   55.83819               7.07894              15.62952
   AR                    3.66568              28.52941               9.00747
   AR                   18.82108              15.56221              24.24615
   AR                   79.27337              32.05457               3.94727
   AR                   88.31459               1.94965              36.54660
   AR                   58.09184              34.37099              43.42743
   AR                   30.46316              20.89413              15.17438
   AR                   85.81850              18.75948              19.82395
   AR                   99.09389               4.63559              36.78950
   AR                   96.02876              41.51170              14.90141
   AR                   79.97166               1.34435              46.40774
   AR                   50.15776              37.94229              30.02814
   AR                   30.39193              17.01745              14.10860
   AR                   64.17546              36.88836              43.97771
   AR                   82.00084              27.28376              10.71676
   AR                   55.63605              48.02679              43.62790
   AR                   80.74094              34.39967              21.32527
   AR                    9.82340               7.83540              19.52414
   AR                   59.90418              19.99502              16.90430
   AR                   59.34095               1.47379              29.30154
   AR                   80.43735              37.99605              41.25007
   AR                   85.03017              15.38125              11.76877
   AR                   84.55324               5.11422              12.37089
   AR                   61.08885              44.18149              30.42726
   AR                   70.10908               4.10732               5.98388
   AR                   81.66289              38.86394               2.64073
   AR                   93.02168              32.74408               4.74640
   AR                   76.02561              34.25431              44.20006
   AR                   14.34693              25.93102              30.54421
   AR                   97.86300              49.17423               5.78272
   AR                   23.98019              20.13818              19.79508
   AR                   59.20844               5.65656              32.17196
   AR                   50.12696              33.24626              44.54534
   AR                   73.20127              17.66812              48.84723
   AR                   54.26461               7.38485              43.79073
   AR                   10.95472               2.38796              15.01316
   AR                   78.13205              40.11570               1.25094
   AR                    6.34855              16.15083               1.91713
   AR                   80.50431              18.80323              13.90668
   AR                   28.05300               1.63835              28.81945
   AR                   95.68673              33.99970              20.60446
   AR                   57.71940              34.80901              24.67752
   AR                   73.23451              50.25293              33.23902
   AR                   63.93918              26.07678              23.01811
   AR                   87.65511               0.93958              46.39990
   AR                   99.25567              29.51194              36.35615
   AR                   61.58750              23.88361               9.27594
   AR                   55.67130               1.79905              46.67501
   AR                   60.04265              23.11099              13.51744
   AR                   83.60408              33.68094               7.58926
   AR                   53.85277               3.17114              34.44730
   AR                   98.49566              24.05451              22.00805
   AR                   13.75936              14.09725              13.14222
   AR                   53.41047              24.37336              29.59264
   AR                   56.06842              35.11956              14.80801
   AR                   59.82032              17.15847              24.94091
   AR                   67.77425              40.09993              45.69836
   AR                   79.73071              44.03451              50.32931
   AR                   93.88600              48.26236               3.41108
   AR                   28.70460              26.29393              10.76405
   AR                   90.15277              41.99918              28.59782
   AR                   67.06004              11.19527              23.00003
   AR                   56.57540              13.67608              27.14240
   AR                   58.41172              25.85530               4.25121
   AR                   53.36043              38.24394              47.15105
   AR                   20.36246              20.44355               6.37706
   AR                   74.18171              22.26998              34.87356
   AR                   84.89154              36.99087               3.02198
   AR                   50.85883              34.64591               7.43340
   AR                   60.51587              38.88920              33.65557
   AR                   54.14183              37.51952               3.66328
   AR                   86.88231               9.08960              19.59132
   AR                    3.81433              24.72532               0.30344
   AR                   87.87849              12.75928               7.67600
   AR                   22.29154              16.00334              30.92651
   AR                   15.32659              28.98404               8.84889
   AR                   72.33084               2.54969              33.57336
   AR                   56.65620               6.84172               2.93062
   AR                   60.14258               3.60296              41.68366
   AR                   96.38773              29.67986              43.40493
   AR                   68.47758              26.52490              25.52416
   AR                   82.88324               4.54745              24.14385
   AR                    0.47600              30.33646              32.07111
   AR                   82.46631              33.73381              25.48867
   AR                   99.92734              48.17906              46.27588
   AR                   63.78269              24.07541              34.02608
   AR                   31.85518              29.14847              21.32335
   AR                    7.06203               5.61847              20.39372
   AR                    9.22265              21.65228               2.89664
   AR                   29.39914              14.33134              17.23926
   AR                   76.90735              40.95006              23.51397
   AR                   89.08215              46.73443              37.46615
   AR                   26.42984              28.78676              30.86818
   AR                   65.05269               5.63586              42.91878
   AR                   14.77327              28.35383               0.44668
   AR                   99.29044               8.25504              14.51433
   AR                   81.76129              46.43695              24.58197
   AR                   27.84833               5.93658               8.19824
   AR                   23.35275              32.39351              14.01183
   AR                   50.59910              26.74285              20.27650
   AR                   64.38808               8.15172               7.03657
   AR                   72.57544              11.33901              33.24144
   AR                   93.24697              49.95931              51.04114
   AR                   95.13704              45.35497               9.13901
   AR                   97.24121               5.89339              43.81914
   AR                   66.63685              10.79814               8.43682
   AR                   19.37799               0.28804               4.10718
   AR                   80.89238              43.92906              37.11084
   AR                   61.60120              48.82392              18.40498
   AR                   50.33435              27.50047              27.26499
   AR                   49.69204              19.56007              29.13190
   AR                   20.21478              32.57499              31.81677
   AR                   71.21542              42.55600               7.68180
   AR                   64.44050              39.88532              35.10584
   AR                   90.38146              47.88638              22.55206
   AR                   59.85968              23.78050              45.65518
   AR                    9.65208              20.55187              30.91310
   AR                   76.02547               3.93616              44.48407
   AR                   82.21806              14.05698               5.32639
   AR                   20.12854              17.45169               1.95184
   AR                   94.53083               3.50042              15.10327
   AR                   22.06984              18.80749              13.50163
   AR                   50.55233              44.86184               9.38779
   AR                   87.68309               5.95710              39.42354
   AR                   95.57972              17.29717              40.75532
   AR                   15.84966              18.81603              18.25771
   AR                   95.58542              11.28119              18.50002
   AR                   16.89952              31.54193               1.39323
   AR                   70.36347              43.66932               1.31645
   AR                   21.77580              24.66413              14.98827
   AR                   77.69832              19.25722              28.47809
   AR                   83.23785              20.45452               2.39508
   AR                    4.11252              21.96078              17.09185
   AR                   71.12075               9.76455               7.48212
   AR                   22.57433              21.35334              23.97251
   AR                   49.80285              17.20537              11.00390
   AR                   71.20719               8.80583              28.40530
   AR                   90.55629              34.06916              39.26883
   AR                   77.98056              31.24156              19.58321
   AR                   61.43114              19.79458              10.23399
   AR                   92.81968              24.56543              44.05763
   AR                   95.19247              40.10748              24.91364
   AR                   74.50633              39.35457               9.76743
   AR                   21.26706               8.06537               1.28034
   AR                   13.17575              11.43030               6.90292
   AR                   31.77871               6.82482              26.42894
   AR                   66.50578              36.57026              40.03259
   AR                   56.92393               9.71256              23.25270
   AR                   93.36764              38.71257              36.74829
   AR                   84.47094              27.00039               8.56511
   AR                   83.66392              37.15569              21.19006
   AR                   83.98496              36.31354               9.65531
   AR                   90.44369              48.67593              19.38545
   AR                   10.44738               7.57647               5.28136
   AR                   98.41725               9.66104              42.72130
   AR                   85.69844              45.88933              17.96402
   AR                   68.07665               9.88287              12.52883
   AR                    1.98113               6.66417              24.32590
   AR                   49.29809              35.72888              48.64534
   AR                   85.84834              13.58709               2.28029
   AR                    7.04792              15.10183              27.06231
   AR                   50.85923              45.93370              31.10896
   AR                   25.88924               4.67727              15.37229
   AR                   95.11613              36.39486              34.63000
   AR                   92.94378               0.77954              12.11174
   AR                   72.92816              50.32126              14.47609
   AR                   84.35354              20.90215              34.59435
   AR                   14.46116              14.79076              19.01500
   AR                    8.60256              25.52968              24.90547
   AR                   96.12027               8.52558              45.34193
   AR                   84.50636              36.65547              24.41830
   AR                   27.30852              25.54446               3.89066
   AR                   87.27095              49.98424              11.94407
   AR                   83.48506              12.14397              10.03314
   AR                   27.60168              26.95750              15.92371
   AR                   61.77852              22.41046               4.16613
   AR                   78.34472               5.07561               5.85559
   AR                   62.26772              46.04534              38.61941
   AR                   79.88354              18.90369               6.19124
   AR                   61.97304              35.24077              35.49719
   AR                   93.48842              19.99333               2.73357
   AR                   91.33894               2.28908              38.12897
   AR                   84.18546              45.87645              37.60671
   AR                   99.19350              16.89185               0.36246
   AR                   18.36023               7.83022              15.88843
   AR                   96.75859               0.95264              25.07337
   AR                   89.12503              10.10940              32.99019
   AR                   18.69903              10.88666               1.08715
   AR                   83.02713              24.53497              36.98537
   AR                   83.88783               7.73995               6.25947
   AR                   58.53582              15.21914              29.89804
   AR                   97.28653              28.69571              40.39284
   AR                   53.41224              22.47725              33.87696
   AR                   31.92182              17.05911               9.60683
   AR                   29.21225              10.80081              16.88224
   AR                   69.00028               6.06372              13.29177
   AR                   52.49887               8.88591               1.38152
   AR                   60.19360              16.08690              15.32228
   AR                   96.80542               8.21723              37.90094
   AR                   73.10846               5.14889              36.06958
   AR                   60.08083              38.74278              27.42484
   AR                   55.79242               0.40910              16.56332
   AR                    6.48076               1.30964               4.96049
   AR                   99.92753              10.01553              38.89841
   AR                   15.35769              27.17642              11.70891
   AR                   51.47816              43.06414               6.67719
   AR                   83.59806              21.19314               6.68652
