       421
            32.11222            52.02257
   AR                   69.28490              37.74568              34.86421
   AR                   94.11296              15.74126              33.52494
   AR                   80.15685               1.25259              26.71659
   AR                   90.94792              41.21120              40.34108
   AR                   69.75740              41.69964               1.94742
   AR                   69.88302               2.90600              22.66686
   AR                   60.04144              19.92688               6.78023
   AR                   83.26553              17.42521              16.29109
   AR                   98.46558               9.38603              21.74909
   AR                   59.29211              26.69885              26.25243
   AR                   89.52608              38.18952              12.54012
   AR                   54.58755              10.73056              30.03831
   AR                   91.52292              41.25559              44.93351
   AR                   79.53518               5.38793              47.51318
   AR                   52.21499              46.40730              41.09711
   AR                   97.37860              37.80802              50.55293
   AR                   65.58124              38.58864               8.80616
   AR                   56.01541               8.96562              38.50222
   AR                   57.61175              41.65784              48.09513
   AR                   28.39915              28.68124              16.46336
   AR                   88.55949              48.05704              50.90925
   AR                    6.23192               2.56696              16.02585
   AR                   57.91402               1.56643              17.83588
   AR                   86.70822              23.90121              48.18645
   AR                   96.83099              23.24407              22.47352
   AR                   72.55938              24.31487              26.91573
   AR                   78.25363              17.67930              43.48235
   AR                   68.79923              44.72064              43.27779
   AR                   87.82683               4.43311               3.11720
   AR                   91.54176              23.40563              22.53767
   AR                   18.04172              31.47703              31.21550
   AR                   63.50144              26.32373              35.84199
   AR                   51.97327              39.48332              33.55169
   AR                   56.27601              32.87147              49.26528
   AR                   82.09385              20.03000              42.40379
   AR                   55.18644              16.35024              12.51605
   AR                   58.81738              35.27537              36.57684
   AR                   31.71308              10.69029               8.79286
   AR                   61.64648              46.71304              41.69277
   AR                   89.41466              27.43781              26.38444
   AR                   65.90830              47.35928               7.38240
   AR                   96.49950              43.43148              33.52045
   AR                   26.92888              18.48391              13.59485
   AR                   81.44097              33.81581              15.24362
   AR                    1.87986              10.70935              13.56636
   AR                   11.39681              30.34325              21.51507
   AR                   65.04566              46.78019              15.64540
   AR                   48.30698               4.64663              28.96121
   AR                   92.88434              20.11780              38.46538
   AR                   89.81558              36.23363              44.58995
   AR                   62.73028              16.34861               7.38011
   AR                   72.73653              12.91867              21.49579
   AR                   85.13267              49.59867              21.86140
   AR                   58.12213              35.73020              19.05309
   AR                   48.28058              32.13050               9.35362
   AR                   56.64230              19.39367              16.82105
   AR                   88.09877              34.20800              26.99769
   AR                   56.43120              12.56083              11.10029
   AR                   65.88975               6.07276               6.09981
   AR                   69.55837               3.72630               6.84320
   AR                   53.84259              36.57650              47.48055
   AR                   48.95388              14.97596              35.69311
   AR                   25.80976              14.73078              14.01526
   AR                   95.52104              20.96457              48.28269
   AR                   60.60781              22.57416              16.83660
   AR                   61.27547               3.50719              21.30711
   AR                   93.44989               2.65902              38.04547
   AR                   87.81672              24.89204              15.96154
   AR                   88.63791              19.34749              37.08332
   AR                   86.50048              37.80262              44.40435
   AR                   59.39423               4.02008              30.95309
   AR                   23.34060              10.05632              13.65656
   AR                   76.58731              24.98951              23.78905
   AR                   80.36197              15.89009              47.92667
   AR                   18.78280               2.77093              30.95295
   AR                   74.06982              10.75464              11.76099
   AR                   22.70881               9.95045              17.17255
   AR                   95.02200              34.49859              47.96746
   AR                   54.37029               7.95555              49.49998
   AR                   69.42610               6.23502              32.29391
   AR                   88.01167              30.10857               8.61535
   AR                   86.43372              43.81681              46.26391
   AR                   80.34994              26.92485              27.33090
   AR                   65.11150              51.39388              32.60196
   AR                   84.37966              30.99448              47.39847
   AR                   97.02329              24.64464              47.71846
   AR                   11.81908               4.98747              28.63447
   AR                   88.68656               9.08394               3.50968
   AR                   55.79212              21.42466              35.94090
   AR                   65.14320              22.35973              39.16951
   AR                   24.52068              24.81142              20.04572
   AR                   13.43444              16.92563               9.00364
   AR                   91.64262              29.34754               5.30597
   AR                   79.42640              20.37557              32.04397
   AR                   69.94587              48.30115              10.15110
   AR                   13.47119              16.32019              27.23596
   AR                    0.19719              13.90335              26.51878
   AR                   52.97169              36.42343              42.21714
   AR                   23.41192               3.75917              30.85229
   AR                   59.43183               9.77741              43.57361
   AR                   74.58538              39.65325              28.23759
   AR                   56.66718              13.09362              45.76620
   AR                   70.90748               3.50618              26.48764
   AR                   66.48352              27.24153               9.17443
   AR                   50.55261               1.27425              25.26917
   AR                   69.14134              12.24643               8.20198
   AR                   84.66137              35.61814              35.96785
   AR                   52.39125              49.68832              17.92247
   AR                   92.08270              32.66554               6.32975
   AR                   84.37937              39.15674               3.61380
   AR                   64.30948              21.26954              33.08707
   AR                   73.32594              26.31240              18.81608
   AR                   50.80155              26.50983              16.06969
   AR                   77.46131              35.58648              40.91320
   AR                   11.92156              32.02583               4.03577
   AR                   53.67250              48.53255               6.07665
   AR                    9.50425              29.45095               5.37796
   AR                   93.41840              39.52422               3.71420
   AR                   49.76434               0.23594              35.06912
   AR                   69.05218              24.18228               6.34653
   AR                   72.21262               3.75503              31.37103
   AR                   14.76137              23.82618               2.41570
   AR                   84.13960               4.29929              40.93091
   AR                   68.56079              12.88741              20.81035
   AR                   51.87464              16.97756              43.51015
   AR                    4.27627               3.70202              11.17142
   AR                   64.72028              17.69301              27.01785
   AR                   83.91603              51.51253              11.23820
   AR                   67.03013               9.69216              21.71903
   AR                   55.88445              19.78323              31.48201
   AR                   61.95617               6.47814              32.79575
   AR                   85.00038              28.35531              23.59697
   AR                   55.16067              28.17021              44.12162
   AR                   66.66994              33.30697              26.12071
   AR                   69.53029               6.19082               0.87480
   AR                   89.33352              14.73662               4.43816
   AR                   88.60894               1.26217               7.04711
   AR                   51.32040              25.87090               5.43585
   AR                   51.34385              42.16782              49.08761
   AR                   54.45095              36.33587              11.65181
   AR                   77.79819              37.48913              12.55550
   AR                   82.47685              32.55383               8.76937
   AR                   72.28656              44.90323              32.11565
   AR                   77.88437              33.12352              47.91231
   AR                   98.75281              36.65848              34.74920
   AR                   87.14678              35.43172              12.77230
   AR                   62.65158              11.12301              17.26317
   AR                   61.32596              16.31601              33.64558
   AR                   69.95491              23.39089              14.67464
   AR                   12.13623               2.43956               6.18648
   AR                   75.41171               3.29306              16.96548
   AR                   55.27844              32.78561              36.57879
   AR                   65.86384              44.63378              39.43197
   AR                   71.24003              34.90241              11.76883
   AR                   75.55929              41.52096              12.42533
   AR                   29.25783              13.30507              31.27495
   AR                   57.50746              31.28302              29.16221
   AR                   96.11852              22.25446               5.84201
   AR                   71.70886              11.70419              42.97347
   AR                   96.00319              35.10026              41.55069
   AR                   91.26527              12.58394              42.39715
   AR                   55.23353              43.13764              30.98144
   AR                   54.04338              21.44344              16.01740
   AR                   73.33369              34.71533              49.37415
   AR                    5.64700               7.10017              22.34295
   AR                   51.02373              31.06189               5.94796
   AR                   70.06100              14.93694              28.85029
   AR                   23.08830              10.80570               9.15356
   AR                   92.38234              19.76460              11.10758
   AR                   75.54256              21.35080              20.33107
   AR                   52.70145               2.99606              13.05958
   AR                   54.91032              45.95986              32.77611
   AR                   88.89045              11.12661              10.70689
   AR                   73.26231              33.07946              13.31113
   AR                   52.11364              27.13279              34.86137
   AR                   85.59364              12.68791              50.87810
   AR                   29.82562               9.30982               3.36402
   AR                   93.21472              31.30495               1.92385
   AR                   74.97925              17.94417              41.96449
   AR                   65.68092              45.63269              33.87300
   AR                   64.05674              28.20395              51.26189
   AR                   27.97875              17.09635              31.76025
   AR                   48.77531               8.52356              17.85026
   AR                    3.17684              14.97421               0.14073
   AR                    2.38686              11.26730              17.07340
   AR                   93.46272              48.08366              12.92559
   AR                   84.40809              32.70660              23.15800
   AR                   48.58918              34.72667              32.26915
   AR                   93.36418              16.82671              36.89775
   AR                   90.45195              14.88738               0.47648
   AR                   82.23527              20.78580              48.05636
   AR                   96.82621              35.74460              37.59177
   AR                   81.83342               8.12321              47.42076
   AR                   71.37334               3.48424               0.11878
   AR                   96.60125              29.19853              42.24961
   AR                   49.41413               0.28779              20.73882
   AR                   29.91226               4.22533              29.73330
   AR                   54.42382              45.74744               0.15610
   AR                   79.13434               7.36773              13.11039
   AR                   52.77053              26.05879              21.25696
   AR                   88.96844               4.23409              16.25595
   AR                   72.11126              36.77234              21.97772
   AR                   51.75702              21.17274               1.57938
   AR                   12.08805              25.87533               3.66314
   AR                   21.81233              12.92194              16.62504
   AR                   49.45411              13.68662              17.89605
   AR                   59.98711              32.76342              18.57631
   AR                   93.72418              28.48367              25.94628
   AR                   49.23896              24.29390              47.62458
   AR                   30.72693               8.24797              12.11502
   AR                   79.70606              24.81317              51.53143
   AR                   97.13288              20.88948              39.27819
   AR                   86.61428              41.67035              22.33868
   AR                   71.94099              51.33961              10.27060
   AR                   58.86237              45.53323              18.09694
   AR                   82.78888              36.85827              30.02578
   AR                   63.26659              23.02337               1.83928
   AR                   81.62705              39.84291              36.84487
   AR                   80.01300              24.85779              19.45107
   AR                   28.53111              26.83489              11.33371
   AR                   65.73484              10.94255              37.14928
   AR                   61.08964               5.01386              14.01437
   AR                   77.00394              30.21717              45.98143
   AR                   62.44342              25.61047              40.37341
   AR                   53.41319              33.03215              44.01086
   AR                   79.91885              45.85524              33.82949
   AR                   66.47377              38.87948              42.20265
   AR                   82.99640              29.57343              10.72049
   AR                    5.52207              29.39003              17.34705
   AR                   98.99147              23.62467              25.54179
   AR                   69.98596              20.09949              19.92525
   AR                   53.90468              14.67928              30.70675
   AR                   99.47913              10.85702              25.26836
   AR                    0.48314              17.47185              11.97647
   AR                   66.27484              28.94228              21.85700
   AR                   91.21876              37.11220               1.52530
   AR                   12.27280              17.18749              31.24486
   AR                   25.05500              10.83918               1.42168
   AR                   64.77321               5.50249              23.78712
   AR                   87.20379              37.78973               7.53577
   AR                   94.38828              28.08735              15.15685
   AR                   61.47404              51.77143               7.66816
   AR                   67.64520              23.26754              22.62869
   AR                   70.21626              33.05450              17.14763
   AR                   56.46782              35.68076              16.22660
   AR                   65.80717              35.41529              41.13995
   AR                   79.58498               3.58932              12.54220
   AR                   31.83659               2.11590               7.20087
   AR                   99.51077              23.29507              29.69954
   AR                   78.37350              42.05552              22.63209
   AR                   95.28866               3.54733              50.25528
   AR                   67.14565              34.20587               7.53290
   AR                   80.90735               3.73084              20.79547
   AR                   59.90811              17.57438               3.52698
   AR                   81.45755              27.07748              49.12841
   AR                   96.67027              46.11506              35.60392
   AR                   65.91894               6.56367               1.25957
   AR                   64.91775              17.98663              34.30565
   AR                   77.02485               7.16244              21.32196
   AR                   65.17061              33.32838              20.96020
   AR                   84.09279               8.75082              27.99983
   AR                    2.94806               2.10678              18.18760
   AR                   60.61424              48.75935              30.42820
   AR                   56.07628              20.97398              28.38031
   AR                   90.94396              38.65434              22.13239
   AR                   65.36578              30.81768              35.41591
   AR                   99.97798              25.21447              33.64988
   AR                   18.17800              26.35625               8.08646
   AR                   53.39278               3.00889              25.27886
   AR                   83.44503              31.28381              38.46746
   AR                   69.76307               5.94247              36.05150
   AR                   96.71502              23.74679              35.42000
   AR                    0.09239               7.55117               0.83941
   AR                   58.19195              49.90339               7.98298
   AR                   79.32053              21.17222              39.04562
   AR                   66.16295               0.71342               3.39959
   AR                   72.40982              17.01741              21.75400
   AR                   80.55191              48.32891              24.25847
   AR                   97.45895              18.99065               2.41937
   AR                   85.89489              39.87727              10.28957
   AR                   63.48315              29.10843              12.20377
   AR                    1.39992              18.62862              29.75043
   AR                   55.44244              30.96492              51.76276
   AR                   83.35104              26.41848               0.81022
   AR                   50.42113              23.24466              25.16238
   AR                   94.64591              17.77943              28.88714
   AR                   93.99292              11.03034              25.75271
   AR                   97.91229              42.96928              43.23427
   AR                   88.61824              43.93027              32.47650
   AR                   99.22521              43.29412              35.21373
   AR                   30.89237               0.95758               1.56783
   AR                   29.19156              11.56262              27.74823
   AR                   70.20401              31.41096              26.71087
   AR                   29.06262               6.72543              26.93107
   AR                   70.99946              15.84608              35.18791
   AR                   90.74246              46.87146              24.97550
   AR                   69.40662              41.84910              26.68078
   AR                   85.39426               8.91823              14.57675
   AR                   97.34336              48.90637              15.37903
   AR                   85.29810              16.38435              46.81728
   AR                   85.45898               6.88424               6.91288
   AR                   69.68630              26.39502              38.61949
   AR                   81.49415              42.74774              33.13703
   AR                   63.60484              30.33436              30.56999
   AR                   90.75705              43.65591              15.31345
   AR                   62.70377              35.02732              33.60335
   AR                   50.21335               1.68999              29.94298
   AR                   22.96951              27.16966              15.33795
   AR                   60.09941              28.24884              40.41246
   AR                   99.82541              33.62516              23.01615
   AR                   95.03272              25.33261               6.81718
   AR                   56.40809              32.52366              21.33850
   AR                   48.23203              22.63614              38.16588
   AR                   97.74556              13.90137              30.91622
   AR                   97.72908              34.98408               8.60358
   AR                   62.51739              48.39726              36.44087
   AR                   83.98811               8.53264               3.13169
   AR                   87.72016               7.96518              47.00002
   AR                   58.44915              49.89614              37.67895
   AR                   86.39595              29.15865              34.00452
   AR                   25.14537              25.35209              23.69443
   AR                   23.55431              24.19132              27.91888
   AR                   16.62925               9.67369               0.76582
   AR                   20.80000              24.49036              25.15430
   AR                   81.92419               2.55409              44.00772
   AR                   92.01797              32.72241              12.39553
   AR                   66.10302              27.22184              33.16470
   AR                   63.64270              50.14998              13.41442
   AR                   75.29988              12.68545              16.69695
   AR                   62.82964              20.76192              36.39071
   AR                   64.89221              33.10640              14.56441
   AR                   48.62503               8.71436              12.67963
   AR                   79.01838              34.87404              17.86132
   AR                   31.92032               0.49415              12.34406
   AR                    9.68877               3.87966              14.02438
   AR                   88.61613              50.22560              20.61319
   AR                   99.19640              44.49852              16.76412
   AR                   63.03088              11.32002              44.64356
   AR                   24.96914               8.40431              23.72797
   AR                   81.47906              26.45221              23.63587
   AR                   98.54356              30.72201              39.23121
   AR                   62.90648               5.55122               1.50603
   AR                   97.93086               2.07765              17.39944
   AR                   88.60296              30.83251              12.53874
   AR                   65.93510              34.41842               4.10192
   AR                   77.91155              38.46229              15.95074
   AR                   90.06984              26.79739              33.26721
   AR                   95.60159              16.76832              11.97102
   AR                   67.88959              16.45422              50.01563
   AR                   25.85440              14.01951              26.99805
   AR                   81.66523              35.57725               0.76116
   AR                   90.49742              28.50059               0.59830
   AR                   55.68121              17.13513              22.27763
   AR                   17.38153              29.04382              10.12695
   AR                   77.55137              35.79456               5.74990
   AR                   64.59328              36.01995              47.82322
   AR                   48.79657              23.14484              12.87824
   AR                   97.89766              48.63771              28.81447
   AR                   88.85681               3.95393              20.73408
   AR                   76.03696               3.81776              48.65357
   AR                   91.53269               3.50735              46.20662
   AR                   88.65290               7.88756              22.58595
   AR                   91.33945              47.63103              33.02482
   AR                   63.57682              35.80983               0.55748
   AR                   64.83891              24.61355               9.62231
   AR                   71.64401              15.75706              25.12052
   AR                   99.48784              47.56705              31.81521
   AR                   89.81608              34.47917              49.31186
   AR                   55.81330               9.23788               1.26872
   AR                   57.89209              23.03958               7.37800
   AR                    1.10409               8.36746              28.95942
   AR                   31.45021              14.78765               2.04338 FRACTIONAL
   AR                   90.58630              37.42024               8.39775
   AR                   70.84821              32.60550              42.62662
   AR                   55.97976              29.04693              37.64556
   AR                   57.65688              26.40430              34.98560
   AR                   95.46531               5.23252              10.29557
   AR                    5.95683              10.22947              10.59682
   AR                   83.05569              36.28331              24.61954
   AR                   56.81921              42.86326              27.60761
   AR                   67.65373              36.12226              49.62375
   AR                   11.53486              17.91108               6.28819
   AR                   85.03682              16.74467              50.32596
   AR                   29.47901               8.09080              19.08680
   AR                   80.32518              16.59078              36.86249
   AR                   90.48451              50.36777              49.34878
   AR                   60.45390              40.79484              32.08664
   AR                   66.63849              35.79808              11.49072
   AR                   66.65915               8.71322              43.08280
   AR                   56.89538              25.56316              12.92336
   AR                   48.76199              45.30792               5.69044
   AR                   63.22966              13.39437               2.31280
   AR                   54.86837               5.96232              42.37735
   AR                   82.88372              26.60824              17.80294
   AR                   70.32533              47.21119              28.90118
   AR                   27.12305               9.03337              30.72014
   AR                   27.09645               4.82656              23.36489
   AR                   61.02723              46.93579              50.91894
   AR                   83.20230              43.35367              48.31586
   AR                   79.39797              29.51689               2.22856
   AR                   77.60062              47.96501               3.12667
   AR                   50.27352              47.14788              14.44514
   AR                   95.02457               5.91095              36.43696
   AR                   88.31878              40.93810              34.75444
   AR                   55.07930               6.64220              14.04663
   AR                   98.60213               2.23774              47.32143
   AR                   87.59764              38.37863              32.06844
   AR                   16.26555              27.38145              13.54918
   AR                   14.49269               0.10393              30.97154
   AR                   56.67846              38.14726               0.68848
   AR                   87.36581              17.72249              42.62796
   AR                   83.24085               3.73426              17.98100
   AR                   63.84705               3.86158              44.75162
   AR                   85.83411              49.61128              30.54983
   AR                   91.76943              23.67293               7.14292
   AR                    0.52335              20.39752               8.87656
   AR                   48.79353              50.63626              12.65121
   AR                   25.07659              18.25526              27.57737
   AR                   69.40196              19.24550               4.85625
   AR                   66.51142              25.50884              40.11340
   AR                   74.00979               8.96044              18.04440
