       301
            34.98344            60.93045
   AR                   19.20278              30.08407              32.54482
   AR                   83.60976              46.52807               9.03680
   AR                    0.46464              11.29064              16.70274
   AR                   73.63968              52.48917               8.75643
   AR                  104.48703              11.39964              11.01467
   AR                   93.07683              31.75513              18.62182
   AR                  105.01555              50.97824              49.44373
   AR                   65.96313              35.62474              55.41118
   AR                   87.53892              12.16590              28.40406
   AR                   13.05160               9.80755              23.57752
   AR                   86.96133              28.91383              26.35231
   AR                   57.68496              41.34609              25.39378
   AR                  103.88677               6.94800              26.23608
   AR                   95.86943              18.25194              12.62134
   AR                   14.75692              29.18884              23.83976
   AR                   96.82011              29.91525              51.13089
   AR                   30.36853              30.18602               4.99694
   AR                  106.46998               7.34393              43.94081
   AR                    8.95399              18.17242              23.75260
   AR                   83.69629              18.84993              48.22111
   AR                   15.09952              26.20205               0.46943
   AR                   74.87839              37.23224              47.36576
   AR                  106.03337              50.11946               3.46989
   AR                   88.37529              27.28843              21.99233
   AR                   90.18123              14.73854              60.48406
   AR                   76.16984              60.68918              19.48955
   AR                   98.96063              45.78531              32.71579
   AR                   14.39464               8.71636               8.41134
   AR                   99.40434               7.37847              33.64269
   AR                   66.65071              27.04473              43.98025
   AR                   73.79433               0.52471              21.83403
   AR                   88.28258              15.84864              41.84592
   AR                  104.43318              39.52915              39.88072
   AR                   67.26308              58.06749              15.94713
   AR                   73.45731               6.05996              21.81830
   AR                  111.09202              33.52626              41.66008
   AR                   86.28973              34.31640               8.07647
   AR                   85.75347              57.67355              54.29313
   AR                   62.88575              58.68798               8.85500
   AR                    7.70257              23.57439               6.22753
   AR                   65.06598               6.00943              44.24485
   AR                   57.03697               7.31131              60.47844
   AR                   55.62137               4.86661              41.79868
   AR                   25.97037              15.99489              27.73950
   AR                   13.01021              10.17134              19.08464
   AR                   14.63863              13.25677              21.08465
   AR                   96.09944               6.72053              44.15263
   AR                   86.52182              45.09070              58.28497
   AR                   56.43401              53.82815              54.12111
   AR                   81.70700              13.09876              39.72436
   AR                   57.18044              33.80744              44.26482
   AR                   83.44726              57.32444              27.86151
   AR                   99.13084              55.43869               3.80468
   AR                  112.23870              31.95771              50.91324
   AR                   90.78887              23.63461              28.79664
   AR                   78.98598              38.50860               5.16471
   AR                  107.37521               8.56028              24.04987
   AR                   83.71382              60.84091              51.47502
   AR                   84.02959               1.91298              40.36232
   AR                   59.00858              19.44789              18.19053
   AR                   90.82247               7.56787              55.97037
   AR                   86.02168               7.16192              30.24318
   AR                  100.45430              31.43749              36.25939
   AR                   93.48788               5.46765               4.39022
   AR                  105.60119              28.00046              48.84284
   AR                   73.27227               2.14684              35.95013
   AR                   71.25582              46.67969              60.70357
   AR                   93.83128              19.86348              48.30347
   AR                   57.10767              41.63458              34.27387
   AR                   20.69919              27.98281              26.28650
   AR                  107.51026              54.72290               9.30775
   AR                   87.13386               0.44374              15.47421
   AR                  111.25620              32.32367              47.16106
   AR                   60.90237              20.64060              53.13259
   AR                   97.00703              24.95198              36.49806
   AR                  112.35484              33.23432               7.29961
   AR                   82.99100              23.08098              12.77182
   AR                   10.55725               6.75821              22.79184
   AR                   55.01028              33.85003              49.55531
   AR                   86.38852              50.99044               5.29262
   AR                  107.65778              31.95368              45.80908
   AR                  106.47288               2.02593              12.69484
   AR                   34.20051              31.14925              26.46551
   AR                    3.85287               9.02053              16.13968
   AR                   54.74429              14.25772              41.25649
   AR                  110.52611               2.26338              13.78836
   AR                   75.14366              11.65718              12.67591
   AR                   14.87062              13.10475               9.34836
   AR                   10.61918              34.31511              23.74222
   AR                   77.75090              43.94051              49.12255
   AR                   84.92134              23.48458              29.98489
   AR                   96.44538              26.29789               0.66230
   AR                   70.47239               1.76430              44.79645
   AR                   77.77470              31.68127              21.53261
   AR                   70.07460              55.16119              34.13814
   AR                   61.66087              42.87658              11.61590
   AR                   52.79504              55.14249              53.39329
   AR                  106.11619              53.61662              54.71488
   AR                   71.21315              41.14371              23.95400
   AR                   67.66160              34.99010              15.33854
   AR                  106.01574              16.05909              24.42751
   AR                   75.65737              60.63963              15.22823
   AR                   61.96680              21.98889              33.88864
   AR                   33.88444              29.23189               4.48748 FRACTIONAL
   AR                   85.86598              37.17391               6.23169
   AR                   90.78061               7.81352               4.76040
   AR                   32.29975              18.08769              18.31060
   AR                  105.55345              48.08769              35.56317
   AR                   99.11148              29.33807               8.01476
   AR                   74.11165               9.64407              22.88811
   AR                   52.59909              10.04543              53.82803
   AR                   91.90087              23.43197               8.40762
   AR                  105.86770               8.67277              10.33676
   AR                   79.02809              16.40129              17.68749
   AR                   81.59155              38.78363              11.78824
   AR                  107.73594              38.15791              36.07776
   AR                   84.81068               4.76488               7.30348
   AR                   73.24349               9.36828              52.35111
   AR                  100.36482              36.11900              47.94681
   AR                   98.28937              12.18095              22.13178
   AR                   85.23020               3.24893               0.40450
   AR                   92.29897              55.20857              47.59617
   AR                   68.18997               7.65086              25.74431
   AR                  109.51234              23.02839              60.02304
   AR                   87.35651              47.48104              41.28735
   AR                   60.43225              28.99642               7.39178
   AR                   56.85523              22.01107              52.57212
   AR                   67.37426              27.15213              17.09360
   AR                   84.37795              18.09831              41.20623
   AR                   97.69756               8.14960              20.14069
   AR                   55.50813              37.62738              47.16858
   AR                   96.68200              43.81583              26.59467
   AR                  102.49585              48.81115              37.91308
   AR                   91.93834              38.33501              14.30825
   AR                   12.51753               0.09351               0.48350
   AR                   94.27464               8.55149              19.90840
   AR                  104.11470              53.89124              20.20661
   AR                  104.71455              11.05892              23.75069
   AR                   81.25120              36.01118              60.14952
   AR                   60.34567              11.52622              34.94066
   AR                   17.56231               6.08330              19.54124
   AR                  107.27653              11.79661              40.54145
   AR                   78.16203               0.01390              26.47439
   AR                   77.33322              13.95325              57.58145
   AR                   57.38477              14.92813              58.12444
   AR                  103.58805              27.93861              38.04497
   AR                   20.68920              32.21196              25.69768
   AR                   27.12109              22.74591              11.05860
   AR                  105.51100              19.47904              42.59135
   AR                   95.76115              26.64052              19.27034
   AR                   79.50603              39.70758              49.13583
   AR                    0.14711              14.04146               5.06322
   AR                   18.38445               6.39173              31.87170
   AR                   69.37301              43.52475              40.30917
   AR                   90.23246              26.11431              25.69687
   AR                   83.11905              54.79807              52.74609
   AR                    3.93554              18.39538              20.40396
   AR                   67.89186              44.29779              47.78595
   AR                    4.74170              12.29663              28.99091
   AR                   24.76681               8.28994               8.22678
   AR                   90.42554               4.14526              49.91959
   AR                   72.69966               5.16576              15.65873
   AR                   72.12139              47.19299              30.66712
   AR                    0.40315              24.47699              11.43621
   AR                   96.42176              51.91795              59.93560
   AR                   82.06431              55.94104              24.86622
   AR                   24.32692              20.25384              12.98646
   AR                   54.14731              11.97486               5.25278
   AR                  103.82195               3.71569               9.23484
   AR                  100.31324              56.48684              47.14791
   AR                   60.95485              45.59161              36.08958
   AR                  103.74427              59.45677              36.11551
   AR                  101.74821              49.17099              30.32100
   AR                   96.08510              53.23571              21.98842
   AR                   54.77747              12.76199              48.18941
   AR                   56.77374               5.30680              33.55777
   AR                   95.29925              46.68919              21.34064
   AR                   79.43525              53.39825              20.93482
   AR                   18.39585               3.23048              26.77824
   AR                   88.02123              33.40076              46.04489
   AR                   98.82049              32.96317              44.50171
   AR                   61.87898              51.43929              31.86017
   AR                   55.36544              14.60371              16.22393
   AR                   77.81793              38.23354              20.92711
   AR                  100.18900              53.45922              58.82371
   AR                   27.17930               1.88327              17.75587
   AR                   62.91387              35.84898              30.28765
   AR                    7.69271               5.25684              32.23769
   AR                  107.58494              13.27291              16.96711
   AR                   22.12940              24.22351               7.36546
   AR                   87.69092              20.04817              22.71597
   AR                  103.61699              44.28654              15.13191
   AR                   81.97636              59.93402              54.45719
   AR                   63.89732              60.16477              13.32448
   AR                   16.04302              16.73565              28.31064
   AR                   65.19223              23.20628              48.43389
   AR                   31.76148              23.42442               0.73299
   AR                    7.16292              29.09105              14.30528
   AR                   80.96590              45.60678              46.40293
   AR                   96.67189              59.87618               7.87658
   AR                   18.48195              15.17327               1.42672
   AR                   83.17417               7.80661              32.23601
   AR                   55.46541              37.48391               7.89718
   AR                  102.42686              56.64785               0.37537
   AR                   77.85339               6.18991              42.67275
   AR                   82.31826              44.03735              21.99085
   AR                   55.90327              31.05012              54.14865
   AR                    3.48344              10.70260              10.82814
   AR                  100.56164              60.84776              48.73033
   AR                   18.19728              16.84611              30.59330
   AR                   90.04127              47.22126              20.72191
   AR                   68.12084              46.67293              33.22592
   AR                   58.45661              60.89670              39.52110
   AR                   76.98451              59.51726              23.23267
   AR                   23.06792               5.57766               5.56767
   AR                   53.20433              16.43442              22.10515
   AR                   94.66100              60.74170              42.05060
   AR                    8.12371              21.87965              10.39129
   AR                   80.95445              34.50202               5.78034
   AR                   81.44895               7.34287              21.64251
   AR                   69.15201              37.91130              50.22808
   AR                  104.88435              34.30523              38.10054
   AR                   82.30965              31.84116              51.12575
   AR                   26.36215              11.41025              14.80392
   AR                   82.67949               4.22136              31.82459
   AR                   64.96604              47.25776               5.07931
   AR                   83.58404              35.00590              12.85293
   AR                   62.67727               8.61622              39.44057
   AR                   68.22992              44.66538               1.50590
   AR                   64.09387              12.85921              28.09720
   AR                   96.62748              56.01154              11.81967
   AR                   54.37793              55.64566              29.68979
   AR                  103.11222              42.85963              35.92608
   AR                   85.34737              48.54475              35.12195
   AR                  111.78098              23.01824              54.85366
   AR                  101.59269              15.88671              54.02564
   AR                   61.84860              46.84181              40.56267
   AR                   29.07265               8.48902              31.68720
   AR                   74.21552              31.07211               1.38298
   AR                  110.82352              43.79645              50.88162
   AR                   64.88010              11.96263               5.05941
   AR                   76.16539              45.60192              31.97013
   AR                   82.81641              18.11081              27.62485
   AR                   92.31015              33.94178              47.91116
   AR                   34.60615              15.02877              14.32154
   AR                   99.49512               2.68058              30.56791
   AR                  106.36548              51.81591              59.44700
   AR                   13.66154              31.18371              32.09058
   AR                   88.78504              42.33909              10.50786
   AR                  109.83380               6.43554              20.41325
   AR                    2.16137              22.42043              27.06336
   AR                  109.18481              46.37143              53.76387
   AR                   62.53677               0.61570              40.35716
   AR                   79.83838              35.35603              22.21883
   AR                   76.76936               8.11734              11.47806
   AR                   52.62148              28.56409              48.03158
   AR                   93.07767              17.64455              45.11865
   AR                   60.16599              34.32293              22.76105
   AR                   95.65278              51.61861               6.17873
   AR                   66.53461              41.51484              24.22090
   AR                   97.31413              37.10593              14.74947
   AR                  105.98181              47.25634              50.46715
   AR                   67.92498              16.03492              37.11800
   AR                   98.46653              16.20873              59.60387
   AR                   33.18132              13.64410               1.36444
   AR                   67.11076              50.60873              59.41131
   AR                  108.41554              55.54269               5.44295
   AR                   98.94974              44.12670              29.24087
   AR                  100.30042              53.74125              23.54678
   AR                   81.40166               9.53235               0.59353
   AR                   99.35364              28.87410               1.86508
   AR                   93.21176              13.28211              55.63744
   AR                   72.07488              26.48390              20.05581
   AR                   15.61502               7.66626              16.80642
   AR                   80.97340              45.89751              57.00912
   AR                  101.09586              15.40913              10.72394
   AR                   98.13107              27.40484              46.70955
   AR                   66.86919              49.53909              20.63729
   AR                   68.45277              26.92986              56.00827
   AR                   68.62527              29.25599               7.27667
   AR                   86.82928               3.17077              13.50852
   AR                   26.57379              31.71968               6.49058
   AR                   59.94495              25.84008              51.12896
   AR                  110.82031              55.93947              43.77338
   AR                    4.31801              12.94332              18.91616
   AR                  106.90013              16.68001              39.68599
   AR                  107.10239              56.45953              40.04431
   AR                   99.64518               0.59233              56.70562
   AR                   66.27996              55.43908              17.85659
   AR                   75.96848              60.13675              55.28356
   AR                   70.63873              47.07347              54.97763
   AR                   86.04535              38.71021              37.37177
   AR                   17.73324              31.65085              23.65778
   AR                   81.96452              24.53561              19.70341
   AR                   84.30477              57.86728              21.61838
   AR                   80.65669              53.01183              26.84474
   AR                   55.76591              44.91228              40.93320
   AR                   55.23531              19.17910              17.16417
   AR                  101.22694               5.35538              60.32776
   AR                    9.84814               3.11430              28.77051
   AR                  106.33976              30.70118               1.66614
